@<TRIPOS>MOLECULE
    MOL
   66    67     0     0     0
SMALL
USER_CHARGES


@<TRIPOS>ATOM
      1 C1         26.3960   -2.1480   12.6560 ca         1 MOL      0.161600
      2 C2         26.1010   -1.0680   11.7950 ca         1 MOL     -0.014500
      3 C3         26.9090    0.0660   11.7920 ca         1 MOL     -0.035400
      4 C4         28.0050    0.1530   12.6480 ca         1 MOL      0.055500
      5 C5         28.3430   -0.9210   13.4780 ca         1 MOL      0.006300
      6 C6         27.5330   -2.0770   13.4980 ca         1 MOL      0.163300
      7 C7         31.3150    0.3430   11.9940 ca         1 MOL      0.108700
      8 C8         31.2250   -1.0410   11.8000 ca         1 MOL     -0.034800
      9 C9         32.2360   -1.8610   12.3080 ca         1 MOL     -0.057000
     10 C10        33.3390   -1.3050   12.9690 ca         1 MOL     -0.050300
     11 C11        33.4270    0.0830   13.1290 ca         1 MOL     -0.057000
     12 C12        32.4250    0.9160   12.6310 ca         1 MOL     -0.034800
     13 C13        24.4520   -3.2750   11.8840 c3         1 MOL      0.079000
     14 O1         25.6050   -3.3110   12.7260 os         1 MOL     -0.491500
     15 O2         27.8060   -3.1910   14.3150 os         1 MOL     -0.491400
     16 C14        28.8830   -2.9880   15.2320 c3         1 MOL      0.079000
     17 N1         28.8190    1.3480   12.6050 nh         1 MOL     -0.194100
     18 C15        29.1920    1.9140   13.9400 c3         1 MOL      0.111100
     19 C16        28.6830    3.3220   14.1240 za         1 MOL      0.232400
     20 O3         27.7010    3.7690   13.5490 zb         1 MOL     -0.274000
     21 N2         29.4570    4.0250   15.0190 ns         1 MOL     -0.310600
     22 C17        29.3390    5.4570   15.2010 c3         1 MOL      0.027800
     23 C18        29.6660    5.8540   16.6440 c3         1 MOL     -0.028000
     24 C19        28.5710    5.3690   17.5680 c3         1 MOL     -0.061000
     25 C20        30.9830    5.3050   17.1580 c3         1 MOL     -0.061000
     26 C21        30.2030    6.2310   14.1960 c3         1 MOL     -0.028000
     27 C22        31.4300    5.4710   13.7090 c3         1 MOL     -0.061000
     28 C23        29.3840    6.5960   12.9760 c3         1 MOL     -0.061000
     29 S1         30.0220    1.4170   11.3470 sy         1 MOL      0.075100
     30 O4         29.5250    0.7970   10.1330 zb         1 MOL     -0.149800
     31 O5         30.5800    2.7540   11.3190 zb         1 MOL     -0.149800
     32 C24        34.3790   -2.1880   13.5740 c3         1 MOL     -0.039700
     33 H1         24.7500   -3.2250   10.8320 h1         1 MOL      0.066000
     34 H2         23.8120   -2.4270   12.1460 h1         1 MOL      0.066000
     35 H3         23.8850   -4.1960   12.0390 h1         1 MOL      0.066000
     36 H4         25.2580   -1.0540   11.1150 ha         1 MOL      0.065600
     37 H5         26.6700    0.8920   11.1330 ha         1 MOL      0.063800
     38 H6         29.2350   -0.8220   14.0840 ha         1 MOL      0.067400
     39 H7         28.9630   -3.8720   15.8710 h1         1 MOL      0.066000
     40 H8         28.6890   -2.1180   15.8660 h1         1 MOL      0.066000
     41 H9         29.8250   -2.8670   14.6880 h1         1 MOL      0.066000
     42 H10        30.2800    1.8920   14.0650 h1         1 MOL      0.057800
     43 H11        28.7760    1.3150   14.7540 h1         1 MOL      0.057800
     44 H12        30.2790    3.5710   15.4030 hn         1 MOL      0.149000
     45 H13        28.2950    5.7310   15.0200 h1         1 MOL      0.050300
     46 H14        29.6980    6.9460   16.7050 hc         1 MOL      0.031300
     47 H15        28.4990    4.2780   17.5540 hc         1 MOL      0.023300
     48 H16        27.6070    5.7840   17.2660 hc         1 MOL      0.023300
     49 H17        28.7730    5.6830   18.5950 hc         1 MOL      0.023300
     50 H18        31.8240    5.6900   16.5790 hc         1 MOL      0.023300
     51 H19        31.0020    4.2130   17.1170 hc         1 MOL      0.023300
     52 H20        31.1310    5.6010   18.1990 hc         1 MOL      0.023300
     53 H21        30.5220    7.1660   14.6620 hc         1 MOL      0.031300
     54 H22        31.1450    4.5910   13.1270 hc         1 MOL      0.023300
     55 H23        32.0600    5.1460   14.5390 hc         1 MOL      0.023300
     56 H24        32.0310    6.1070   13.0560 hc         1 MOL      0.023300
     57 H25        28.4720    7.1240   13.2650 hc         1 MOL      0.023300
     58 H26        29.1000    5.7020   12.4160 hc         1 MOL      0.023300
     59 H27        29.9610    7.2430   12.3100 hc         1 MOL      0.023300
     60 H28        30.3760   -1.4840   11.2900 ha         1 MOL      0.063700
     61 H29        32.1610   -2.9380   12.1940 ha         1 MOL      0.062100
     62 H30        34.1180   -2.4180   14.6100 hc         1 MOL      0.027800
     63 H31        35.3550   -1.6920   13.5520 hc         1 MOL      0.027800
     64 H32        34.4640   -3.1200   13.0090 hc         1 MOL      0.027800
     65 H33        34.2750    0.5150   13.6490 ha         1 MOL      0.062100
     66 H34        32.5090    1.9900   12.7630 ha         1 MOL      0.063700
@<TRIPOS>BOND
     1   11   12 un
     2   23   24 un
     3   25   51 un
     4   13   33 un
     5   29   30 un
     6    7   29 un
     7   28   58 un
     8   21   44 un
     9   17   29 un
    10    9   10 un
    11   26   28 un
    12   19   20 un
    13    2    3 un
    14   17   18 un
    15   27   54 un
    16   32   62 un
    17    7    8 un
    18   29   31 un
    19   13   34 un
    20   23   46 un
    21   13   14 un
    22    8   60 un
    23   28   57 un
    24    5   38 un
    25   18   43 un
    26   21   22 un
    27   26   27 un
    28   16   40 un
    29    9   61 un
    30    4   17 un
    31    4    5 un
    32   19   21 un
    33   13   35 un
    34   18   42 un
    35   23   25 un
    36    7   12 un
    37    5    6 un
    38   25   52 un
    39   27   55 un
    40   10   11 un
    41   16   39 un
    42    3    4 un
    43    1    6 un
    44   26   53 un
    45   10   32 un
    46   15   16 un
    47   24   48 un
    48   22   45 un
    49    3   37 un
    50   32   64 un
    51    1    2 un
    52   18   19 un
    53   28   59 un
    54    2   36 un
    55   22   26 un
    56   24   49 un
    57   27   56 un
    58   22   23 un
    59   25   50 un
    60    1   14 un
    61    6   15 un
    62   24   47 un
    63   12   66 un
    64   16   41 un
    65   11   65 un
    66   32   63 un
    67    8    9 un

