@<TRIPOS>MOLECULE
    MOL
   66    67     0     0     0
SMALL
USER_CHARGES


@<TRIPOS>ATOM
      1 N          42.9780   11.8280    3.8420 N          1 UNL      0.000000
      2 C          42.0810    8.2210    5.8680 C          1 UNL      0.000000
      3 C          43.3830    8.7460    5.9110 C          1 UNL      0.000000
      4 C          43.6550    9.9580    5.2590 C          1 UNL      0.000000
      5 H          44.6680   10.3540    5.2740 H          1 UNL      0.000000
      6 C          42.6560   10.6440    4.5740 C          1 UNL      0.000000
      7 C          41.3500   10.1670    4.5990 C          1 UNL      0.000000
      8 H          40.5460   10.7320    4.1350 H          1 UNL      0.000000
      9 C          41.0650    8.9710    5.2560 C          1 UNL      0.000000
     10 H          40.0280    8.6520    5.2880 H          1 UNL      0.000000
     11 O          44.5040    8.2220    6.4990 O          1 UNL      0.000000
     12 C          45.2100    7.1830    5.8420 C          1 UNL      0.000000
     13 H          45.2540    7.3530    4.7630 H          1 UNL      0.000000
     14 H          46.2040    7.0380    6.2790 H          1 UNL      0.000000
     15 H          44.6500    6.2550    6.0020 H          1 UNL      0.000000
     16 O          41.8190    7.0100    6.4510 O          1 UNL      0.000000
     17 C          42.1950    5.8670    5.6850 C          1 UNL      0.000000
     18 H          41.9770    6.0210    4.6230 H          1 UNL      0.000000
     19 H          43.2510    5.6100    5.8340 H          1 UNL      0.000000
     20 H          41.5940    5.0180    6.0250 H          1 UNL      0.000000
     21 C          42.7340   13.1550    4.4460 C          1 UNL      0.000000
     22 H          43.6690   13.7200    4.5220 H          1 UNL      0.000000
     23 H          42.0910   13.7530    3.7900 H          1 UNL      0.000000
     24 C          42.0620   13.1710    5.8180 C          1 UNL      0.000000
     25 N          42.8880   13.0730    6.9220 N          1 UNL      0.000000
     26 H          43.8700   13.2560    6.7620 H          1 UNL      0.000000
     27 O          40.8470   13.3440    5.9180 O          1 UNL      0.000000
     28 C          42.4190   13.0280    8.3270 C          1 UNL      0.000000
     29 H          41.3480   13.2740    8.3080 H          1 UNL      0.000000
     30 C          43.1400   14.1230    9.1940 C          1 UNL      0.000000
     31 H          42.7040   15.1010    8.9570 H          1 UNL      0.000000
     32 C          42.9740   13.9150   10.7000 C          1 UNL      0.000000
     33 H          42.0170   13.4280   10.9250 H          1 UNL      0.000000
     34 H          43.7640   13.2880   11.1230 H          1 UNL      0.000000
     35 H          42.9710   14.8730   11.2160 H          1 UNL      0.000000
     36 C          44.6330   14.2630    8.8700 C          1 UNL      0.000000
     37 H          45.0830   13.2790    8.7000 H          1 UNL      0.000000
     38 H          44.7750   14.8450    7.9510 H          1 UNL      0.000000
     39 H          45.1860   14.7650    9.6670 H          1 UNL      0.000000
     40 C          42.5750   11.5890    8.9470 C          1 UNL      0.000000
     41 H          42.4770   11.6620   10.0370 H          1 UNL      0.000000
     42 C          41.5060   10.6030    8.4470 C          1 UNL      0.000000
     43 H          41.0300   10.9630    7.5270 H          1 UNL      0.000000
     44 H          41.9420    9.6290    8.2040 H          1 UNL      0.000000
     45 H          40.7170   10.4580    9.1940 H          1 UNL      0.000000
     46 C          43.9420   10.9470    8.6760 C          1 UNL      0.000000
     47 H          44.2230   10.2620    9.4780 H          1 UNL      0.000000
     48 H          43.9250   10.3430    7.7610 H          1 UNL      0.000000
     49 H          44.7220   11.7060    8.5560 H          1 UNL      0.000000
     50 S          44.1030   11.6670    2.5760 S          1 UNL      0.000000
     51 O          44.3000   10.2640    2.2600 O          1 UNL      0.000000
     52 O          45.2420   12.5350    2.8250 O          1 UNL      0.000000
     53 C          43.1840   12.3910    1.2400 C          1 UNL      0.000000
     54 C          42.2700   13.4170    1.5000 C          1 UNL      0.000000
     55 H          42.0620   13.7370    2.5180 H          1 UNL      0.000000
     56 C          41.6640   14.0720    0.4300 C          1 UNL      0.000000
     57 H          40.9840   14.8970    0.6260 H          1 UNL      0.000000
     58 C          41.9570   13.6940   -0.8900 C          1 UNL      0.000000
     59 C          42.8080   12.6080   -1.1260 C          1 UNL      0.000000
     60 H          43.0230   12.2830   -2.1420 H          1 UNL      0.000000
     61 C          43.4220   11.9520   -0.0620 C          1 UNL      0.000000
     62 H          44.1040   11.1270   -0.2570 H          1 UNL      0.000000
     63 C          41.3760   14.4730   -2.0320 C          1 UNL      0.000000
     64 H          42.1370   15.1110   -2.4880 H          1 UNL      0.000000
     65 H          40.9810   13.7820   -2.7850 H          1 UNL      0.000000
     66 H          40.5450   15.1060   -1.7020 H          1 UNL      0.000000
@<TRIPOS>BOND
     1   50   52 un
     2   11   12 un
     3   63   65 un
     4    1   21 un
     5    6    7 un
     6    2   16 un
     7    1   50 un
     8    9   10 un
     9   12   15 un
    10   24   27 un
    11   30   36 un
    12   32   33 un
    13   28   30 un
    14    2    3 un
    15   17   18 un
    16   36   38 un
    17   40   42 un
    18    7    8 un
    19   50   51 un
    20   59   60 un
    21   63   66 un
    22   21   22 un
    23   53   54 un
    24   25   28 un
    25   30   32 un
    26   40   46 un
    27   46   49 un
    28   42   44 un
    29    4    5 un
    30   28   29 un
    31   17   19 un
    32   36   37 un
    33   12   14 un
    34   40   41 un
    35   56   58 un
    36   21   23 un
    37   30   31 un
    38   61   62 un
    39   46   48 un
    40   54   56 un
    41   59   61 un
    42   50   53 un
    43    3   11 un
    44   42   43 un
    45   28   40 un
    46    1    6 un
    47    3    4 un
    48   32   35 un
    49   63   64 un
    50   17   20 un
    51   12   13 un
    52   24   25 un
    53   56   57 un
    54    4    6 un
    55   21   24 un
    56   58   63 un
    57    7    9 un
    58   46   47 un
    59   54   55 un
    60   25   26 un
    61   58   59 un
    62    2    9 un
    63   53   61 un
    64   36   39 un
    65   16   17 un
    66   42   45 un
    67   32   34 un

