@<TRIPOS>MOLECULE
    MOL
   66    67     0     0     0
SMALL
USER_CHARGES


@<TRIPOS>ATOM
      1 N1         42.9780   11.8280    3.8420 N301       1 MOL      0.000000
      2 C1         42.0810    8.2210    5.8680 C261       1 MOL      0.000000
      3 C2         43.3830    8.7460    5.9110 C261       1 MOL      0.000000
      4 C3         43.6550    9.9580    5.2590 C261       1 MOL      0.000000
      5 H1         44.6680   10.3540    5.2740 HG61       1 MOL      0.000000
      6 C4         42.6560   10.6440    4.5740 C261       1 MOL      0.000000
      7 C5         41.3500   10.1670    4.5990 C261       1 MOL      0.000000
      8 H2         40.5460   10.7320    4.1350 HG61       1 MOL      0.000000
      9 C6         41.0650    8.9710    5.2560 C261       1 MOL      0.000000
     10 H3         40.0280    8.6520    5.2880 HG61       1 MOL      0.000000
     11 O1         44.5040    8.2220    6.4990 O301       1 MOL      0.000000
     12 C7         45.2100    7.1830    5.8420 C331       1 MOL      0.000000
     13 H4         45.2540    7.3530    4.7630 HGA3       1 MOL      0.000000
     14 H5         46.2040    7.0380    6.2790 HGA3       1 MOL      0.000000
     15 H6         44.6500    6.2550    6.0020 HGA3       1 MOL      0.000000
     16 O2         41.8190    7.0100    6.4510 O301       1 MOL      0.000000
     17 C8         42.1950    5.8670    5.6850 C331       1 MOL      0.000000
     18 H7         41.9770    6.0210    4.6230 HGA3       1 MOL      0.000000
     19 H8         43.2510    5.6100    5.8340 HGA3       1 MOL      0.000000
     20 H9         41.5940    5.0180    6.0250 HGA3       1 MOL      0.000000
     21 C9         42.7340   13.1550    4.4460 C321       1 MOL      0.000000
     22 H10        43.6690   13.7200    4.5220 HGA2       1 MOL      0.000000
     23 H11        42.0910   13.7530    3.7900 HGA2       1 MOL      0.000000
     24 C10        42.0620   13.1710    5.8180 C2O1       1 MOL      0.000000
     25 N2         42.8880   13.0730    6.9220 N2S1       1 MOL      0.000000
     26 H12        43.8700   13.2560    6.7620 HGP1       1 MOL      0.000000
     27 O3         40.8470   13.3440    5.9180 O2D1       1 MOL      0.000000
     28 C11        42.4190   13.0280    8.3270 C311       1 MOL      0.000000
     29 H13        41.3480   13.2740    8.3080 HGA1       1 MOL      0.000000
     30 C12        43.1400   14.1230    9.1940 C311       1 MOL      0.000000
     31 H14        42.7040   15.1010    8.9570 HGA1       1 MOL      0.000000
     32 C13        42.9740   13.9150   10.7000 C331       1 MOL      0.000000
     33 H15        42.0170   13.4280   10.9250 HGA3       1 MOL      0.000000
     34 H16        43.7640   13.2880   11.1230 HGA3       1 MOL      0.000000
     35 H17        42.9710   14.8730   11.2160 HGA3       1 MOL      0.000000
     36 C14        44.6330   14.2630    8.8700 C331       1 MOL      0.000000
     37 H18        45.0830   13.2790    8.7000 HGA3       1 MOL      0.000000
     38 H19        44.7750   14.8450    7.9510 HGA3       1 MOL      0.000000
     39 H20        45.1860   14.7650    9.6670 HGA3       1 MOL      0.000000
     40 C15        42.5750   11.5890    8.9470 C311       1 MOL      0.000000
     41 H21        42.4770   11.6620   10.0370 HGA1       1 MOL      0.000000
     42 C16        41.5060   10.6030    8.4470 C331       1 MOL      0.000000
     43 H22        41.0300   10.9630    7.5270 HGA3       1 MOL      0.000000
     44 H23        41.9420    9.6290    8.2040 HGA3       1 MOL      0.000000
     45 H24        40.7170   10.4580    9.1940 HGA3       1 MOL      0.000000
     46 C17        43.9420   10.9470    8.6760 C331       1 MOL      0.000000
     47 H25        44.2230   10.2620    9.4780 HGA3       1 MOL      0.000000
     48 H26        43.9250   10.3430    7.7610 HGA3       1 MOL      0.000000
     49 H27        44.7220   11.7060    8.5560 HGA3       1 MOL      0.000000
     50 S1         44.1030   11.6670    2.5760 S3O2       1 MOL      0.000000
     51 O4         44.3000   10.2640    2.2600 O2P1       1 MOL      0.000000
     52 O5         45.2420   12.5350    2.8250 O2P1       1 MOL      0.000000
     53 C18        43.1840   12.3910    1.2400 C261       1 MOL      0.000000
     54 C19        42.2700   13.4170    1.5000 C261       1 MOL      0.000000
     55 H28        42.0620   13.7370    2.5180 HG61       1 MOL      0.000000
     56 C20        41.6640   14.0720    0.4300 C261       1 MOL      0.000000
     57 H29        40.9840   14.8970    0.6260 HG61       1 MOL      0.000000
     58 C21        41.9570   13.6940   -0.8900 C261       1 MOL      0.000000
     59 C22        42.8080   12.6080   -1.1260 C261       1 MOL      0.000000
     60 H30        43.0230   12.2830   -2.1420 HG61       1 MOL      0.000000
     61 C23        43.4220   11.9520   -0.0620 C261       1 MOL      0.000000
     62 H31        44.1040   11.1270   -0.2570 HG61       1 MOL      0.000000
     63 C24        41.3760   14.4730   -2.0320 C331       1 MOL      0.000000
     64 H32        42.1370   15.1110   -2.4880 HGA3       1 MOL      0.000000
     65 H33        40.9810   13.7820   -2.7850 HGA3       1 MOL      0.000000
     66 H34        40.5450   15.1060   -1.7020 HGA3       1 MOL      0.000000
@<TRIPOS>BOND
     1   50   52 un
     2   11   12 un
     3   63   65 un
     4    1   21 un
     5    6    7 un
     6    2   16 un
     7    1   50 un
     8    9   10 un
     9   16   17 un
    10   12   15 un
    11   30   36 un
    12   24   27 un
    13   32   33 un
    14   36   38 un
    15    2    3 un
    16   17   18 un
    17   50   51 un
    18   40   42 un
    19    7    8 un
    20   59   60 un
    21   63   66 un
    22   28   30 un
    23   21   22 un
    24   53   54 un
    25   25   28 un
    26   30   32 un
    27   40   46 un
    28   46   49 un
    29   42   44 un
    30   28   29 un
    31   17   19 un
    32   36   37 un
    33   12   14 un
    34   40   41 un
    35   56   58 un
    36   21   23 un
    37   30   31 un
    38   61   62 un
    39   46   48 un
    40   54   56 un
    41   59   61 un
    42   50   53 un
    43    3   11 un
    44   42   43 un
    45   28   40 un
    46    1    6 un
    47    3    4 un
    48   32   35 un
    49   63   64 un
    50   17   20 un
    51   12   13 un
    52   24   25 un
    53   56   57 un
    54    4    6 un
    55   21   24 un
    56   58   63 un
    57    7    9 un
    58   46   47 un
    59   54   55 un
    60   25   26 un
    61   58   59 un
    62    2    9 un
    63   53   61 un
    64   36   39 un
    65    4    5 un
    66   42   45 un
    67   32   34 un

