FXR_1
  rDOCK(R)          3D
libRbt.so/2013.1/901 2013/11/27
 33 34  0  0  0  0  0  0  0  0999 V2000
   42.6132   14.4441    9.8021 C   0  0  0  0  0  0
   41.6364   14.2020    8.7903 O   0  0  0  0  0  0
   41.9277   13.1817    7.9240 C   0  0  0  0  0  0
   40.9442   12.2668    7.5180 C   0  0  0  0  0  0
   41.2622   11.1875    6.6958 C   0  0  0  0  0  0
   42.5665   11.0290    6.2426 C   0  0  0  0  0  0
   43.5288   11.9821    6.5594 C   0  0  0  0  0  0
   43.2253   13.0656    7.3988 C   0  0  0  0  0  0
   44.3134   13.8697    7.6058 O   0  0  0  0  0  0
   45.5030   13.3051    8.1327 C   0  0  0  0  0  0
   42.9261    9.8877    5.4601 N   0  0  0  0  0  0
   42.8018    9.9364    3.9876 C   0  0  0  0  0  0
   41.8409   10.9762    3.4144 C   0  0  0  0  0  0
   40.6408   10.9356    3.6842 O   0  0  0  0  0  0
   42.3678   11.8920    2.5230 N   0  0  0  0  0  0
   41.6042   12.9982    1.8985 C   0  0  0  0  0  0
   41.5525   14.2691    2.8287 C   0  0  0  0  0  0
   40.7614   14.0293    4.1257 C   0  0  0  0  0  0
   42.9369   14.7903    3.2350 C   0  0  0  0  0  0
   42.1737   13.3372    0.4732 C   0  0  0  0  0  0
   42.5508   12.0992   -0.3423 C   0  0  0  0  0  0
   41.2321   14.2176   -0.3587 C   0  0  0  0  0  0
   43.9690    8.7562    6.1850 S   0  0  0  0  0  0
   45.0349    8.4151    5.2574 O   0  0  0  0  0  0
   44.2771    9.1613    7.5448 O   0  0  0  0  0  0
   42.8944    7.3458    6.2792 C   0  0  0  0  0  0
   43.3757    6.1002    5.8790 C   0  0  0  0  0  0
   42.5008    5.0178    5.8189 C   0  0  0  0  0  0
   41.1519    5.1799    6.1626 C   0  0  0  0  0  0
   40.1813    4.0490    5.9998 C   0  0  0  0  0  0
   40.7031    6.4197    6.6407 C   0  0  0  0  0  0
   41.5737    7.5062    6.7081 C   0  0  0  0  0  0
   43.2661   11.6583    2.1218 H   0  0  0  0  0  0
  1  2  1  0  0  0
  2  3  1  0  0  0
  3  8  2  0  0  0
  3  4  1  0  0  0
  4  5  2  0  0  0
  5  6  1  0  0  0
  6  7  2  0  0  0
  6 11  1  0  0  0
  7  8  1  0  0  0
  8  9  1  0  0  0
  9 10  1  0  0  0
 11 12  1  0  0  0
 11 23  1  0  0  0
 12 13  1  0  0  0
 13 14  2  0  0  0
 13 15  1  0  0  0
 15 16  1  0  0  0
 15 33  1  0  0  0
 16 17  1  0  0  0
 16 20  1  0  0  0
 17 18  1  0  0  0
 17 19  1  0  0  0
 20 21  1  0  0  0
 20 22  1  0  0  0
 23 24  2  0  0  0
 23 25  2  0  0  0
 23 26  1  0  0  0
 26 32  2  0  0  0
 26 27  1  0  0  0
 27 28  2  0  0  0
 28 29  1  0  0  0
 29 30  1  0  0  0
 29 31  2  0  0  0
 31 32  1  0  0  0
M  END
>  <CHROM.1>
137.88529744,89.27570792,122.18302901,-21.78573646,-132.69251829,-61.59316811
84.75523805,-65.81235181,40.84543795,133.90723454,42.48439447,10.79819511
5.33492286,-1.65849571,1.36566028,2.85566904

>  <Name>
FXR_1

>  <RI>
1.65995e+07

>  <Rbt.Current_Directory>
/home/nvk/Dropbox/D3_challenge/ivan/test-docking/src/rdock

>  <Rbt.Executable>
rbdock ($Id: //depot/dev/client3/rdock/2013.1/src/exe/rbdock.cxx#4 $)

>  <Rbt.Library>
libRbt.so (2013.1, Build901 2013/11/27)

>  <Rbt.Parameter_File>
/home/nvk/Dropbox/D3_challenge/ivan/test-docking/rDock_2013.1_src/data/scripts/dock.prm

>  <Rbt.Receptor>
rdock_input.prm

>  <SCORE>
4.6876

>  <SCORE.INTER>
3.35328

>  <SCORE.INTER.CONST>
1

>  <SCORE.INTER.POLAR>
0

>  <SCORE.INTER.REPUL>
0.0806123

>  <SCORE.INTER.ROT>
10

>  <SCORE.INTER.VDW>
-12.4498

>  <SCORE.INTER.norm>
0.10479

>  <SCORE.INTRA>
1.33432

>  <SCORE.INTRA.DIHEDRAL>
4.89501

>  <SCORE.INTRA.DIHEDRAL.0>
9.43705

>  <SCORE.INTRA.POLAR>
0

>  <SCORE.INTRA.POLAR.0>
0

>  <SCORE.INTRA.REPUL>
0

>  <SCORE.INTRA.REPUL.0>
0

>  <SCORE.INTRA.VDW>
-1.11319

>  <SCORE.INTRA.VDW.0>
0.0605502

>  <SCORE.INTRA.norm>
0.0416975

>  <SCORE.RESTR>
0

>  <SCORE.RESTR.CAVITY>
0

>  <SCORE.RESTR.norm>
0

>  <SCORE.SYSTEM>
0

>  <SCORE.SYSTEM.CONST>
0

>  <SCORE.SYSTEM.DIHEDRAL>
0

>  <SCORE.SYSTEM.norm>
0

>  <SCORE.heavy>
32

>  <SCORE.norm>
0.146487

$$$$
FXR_1
  rDOCK(R)          3D
libRbt.so/2013.1/901 2013/11/27
 33 34  0  0  0  0  0  0  0  0999 V2000
   42.0301   16.0214    6.4035 C   0  0  0  0  0  0
   42.0334   14.9594    7.3566 O   0  0  0  0  0  0
   42.2709   13.7111    6.8450 C   0  0  0  0  0  0
   43.3240   12.9159    7.3222 C   0  0  0  0  0  0
   43.6073   11.6781    6.7479 C   0  0  0  0  0  0
   42.8169   11.2060    5.7067 C   0  0  0  0  0  0
   41.7122   11.9411    5.2895 C   0  0  0  0  0  0
   41.4247   13.1960    5.8493 C   0  0  0  0  0  0
   40.3151   13.7636    5.2837 O   0  0  0  0  0  0
   40.3849   14.2457    3.9517 C   0  0  0  0  0  0
   43.1381    9.9736    5.0570 N   0  0  0  0  0  0
   43.0120    9.8616    3.5881 C   0  0  0  0  0  0
   43.5989   11.0032    2.7603 C   0  0  0  0  0  0
   44.6127   11.5915    3.1351 O   0  0  0  0  0  0
   42.8922   11.3900    1.6369 N   0  0  0  0  0  0
   43.3241   12.4445    0.6891 C   0  0  0  0  0  0
   42.8807   12.1187   -0.7875 C   0  0  0  0  0  0
   42.6704   13.3808   -1.6411 C   0  0  0  0  0  0
   43.8708   11.2232   -1.5433 C   0  0  0  0  0  0
   42.8184   13.8579    1.1552 C   0  0  0  0  0  0
   41.3022   14.0287    1.0460 C   0  0  0  0  0  0
   43.2620   14.2178    2.5790 C   0  0  0  0  0  0
   44.1460    8.8973    5.9050 S   0  0  0  0  0  0
   45.2923    8.5539    5.0797 O   0  0  0  0  0  0
   44.3318    9.3578    7.2694 O   0  0  0  0  0  0
   43.1026    7.4617    5.9640 C   0  0  0  0  0  0
   41.7842    7.6005    6.3947 C   0  0  0  0  0  0
   41.0020    6.4620    6.5755 C   0  0  0  0  0  0
   41.5351    5.1911    6.3215 C   0  0  0  0  0  0
   40.7372    3.9560    6.6140 C   0  0  0  0  0  0
   42.8363    5.0752    5.8110 C   0  0  0  0  0  0
   43.6234    6.2101    5.6232 C   0  0  0  0  0  0
   41.9317   11.0784    1.5846 H   0  0  0  0  0  0
  1  2  1  0  0  0
  2  3  1  0  0  0
  3  8  2  0  0  0
  3  4  1  0  0  0
  4  5  2  0  0  0
  5  6  1  0  0  0
  6  7  2  0  0  0
  6 11  1  0  0  0
  7  8  1  0  0  0
  8  9  1  0  0  0
  9 10  1  0  0  0
 11 12  1  0  0  0
 11 23  1  0  0  0
 12 13  1  0  0  0
 13 14  2  0  0  0
 13 15  1  0  0  0
 15 16  1  0  0  0
 15 33  1  0  0  0
 16 17  1  0  0  0
 16 20  1  0  0  0
 17 18  1  0  0  0
 17 19  1  0  0  0
 20 21  1  0  0  0
 20 22  1  0  0  0
 23 24  2  0  0  0
 23 25  2  0  0  0
 23 26  1  0  0  0
 26 32  2  0  0  0
 26 27  1  0  0  0
 27 28  2  0  0  0
 28 29  1  0  0  0
 29 30  1  0  0  0
 29 31  2  0  0  0
 31 32  1  0  0  0
M  END
>  <CHROM.1>
123.65163683,-139.24433579,107.48127534,46.33345987,-125.46854334,34.02275725
146.49560787,151.88732173,-69.10908905,-49.64945972,42.74279235,10.85692118
4.39246655,1.73113534,1.40820643,-0.70666740

>  <Name>
FXR_1

>  <RI>
1.65995e+07

>  <Rbt.Current_Directory>
/home/nvk/Dropbox/D3_challenge/ivan/test-docking/src/rdock

>  <Rbt.Executable>
rbdock ($Id: //depot/dev/client3/rdock/2013.1/src/exe/rbdock.cxx#4 $)

>  <Rbt.Library>
libRbt.so (2013.1, Build901 2013/11/27)

>  <Rbt.Parameter_File>
/home/nvk/Dropbox/D3_challenge/ivan/test-docking/rDock_2013.1_src/data/scripts/dock.prm

>  <Rbt.Receptor>
rdock_input.prm

>  <SCORE>
69.995

>  <SCORE.INTER>
59.8255

>  <SCORE.INTER.CONST>
1

>  <SCORE.INTER.POLAR>
0

>  <SCORE.INTER.REPUL>
0

>  <SCORE.INTER.ROT>
10

>  <SCORE.INTER.VDW>
44.4255

>  <SCORE.INTER.norm>
1.86955

>  <SCORE.INTRA>
9.69704

>  <SCORE.INTRA.DIHEDRAL>
8.17469

>  <SCORE.INTRA.DIHEDRAL.0>
9.43705

>  <SCORE.INTRA.POLAR>
0

>  <SCORE.INTRA.POLAR.0>
0

>  <SCORE.INTRA.REPUL>
0

>  <SCORE.INTRA.REPUL.0>
0

>  <SCORE.INTRA.VDW>
5.6097

>  <SCORE.INTRA.VDW.0>
0.0605502

>  <SCORE.INTRA.norm>
0.303032

>  <SCORE.RESTR>
0.4724

>  <SCORE.RESTR.CAVITY>
0.4724

>  <SCORE.RESTR.norm>
0.0147625

>  <SCORE.SYSTEM>
0

>  <SCORE.SYSTEM.CONST>
0

>  <SCORE.SYSTEM.DIHEDRAL>
0

>  <SCORE.SYSTEM.norm>
0

>  <SCORE.heavy>
32

>  <SCORE.norm>
2.18734

$$$$
FXR_1
  rDOCK(R)          3D
libRbt.so/2013.1/901 2013/11/27
 33 34  0  0  0  0  0  0  0  0999 V2000
   42.0505    6.4728    6.2454 C   0  0  0  0  0  0
   43.0570    7.1609    5.5037 O   0  0  0  0  0  0
   42.8290    8.4966    5.3024 C   0  0  0  0  0  0
   41.5254    9.0095    5.2211 C   0  0  0  0  0  0
   41.2990   10.3560    4.9422 C   0  0  0  0  0  0
   42.3790   11.2143    4.7725 C   0  0  0  0  0  0
   43.6743   10.7378    4.9458 C   0  0  0  0  0  0
   43.9165    9.3809    5.2120 C   0  0  0  0  0  0
   45.2546    9.1145    5.3214 O   0  0  0  0  0  0
   46.1307    9.5250    4.2843 C   0  0  0  0  0  0
   42.1660   12.5815    4.4127 N   0  0  0  0  0  0
   41.1353   13.3752    5.1153 C   0  0  0  0  0  0
   40.9936   13.1390    6.6176 C   0  0  0  0  0  0
   39.9152   12.7911    7.0978 O   0  0  0  0  0  0
   42.0965   13.4189    7.4026 N   0  0  0  0  0  0
   42.1642   13.2119    8.8687 C   0  0  0  0  0  0
   42.6768   11.7664    9.2306 C   0  0  0  0  0  0
   41.6465   10.6695    8.9131 C   0  0  0  0  0  0
   43.9800   11.3803    8.5194 C   0  0  0  0  0  0
   43.0313   14.3302    9.5529 C   0  0  0  0  0  0
   43.1068   14.1966   11.0748 C   0  0  0  0  0  0
   44.4542   14.4211    8.9866 C   0  0  0  0  0  0
   43.4378   13.3708    3.6046 S   0  0  0  0  0  0
   43.3549   14.8011    3.8501 O   0  0  0  0  0  0
   44.6840   12.6573    3.8187 O   0  0  0  0  0  0
   42.9557   13.1072    1.9160 C   0  0  0  0  0  0
   42.4335   11.8687    1.5466 C   0  0  0  0  0  0
   42.1825   11.6076    0.2014 C   0  0  0  0  0  0
   42.4481   12.5833   -0.7689 C   0  0  0  0  0  0
   42.2819   12.2754   -2.2267 C   0  0  0  0  0  0
   42.8961   13.8516   -0.3714 C   0  0  0  0  0  0
   43.1450   14.1217    0.9732 C   0  0  0  0  0  0
   42.8137   13.9906    6.9770 H   0  0  0  0  0  0
  1  2  1  0  0  0
  2  3  1  0  0  0
  3  8  2  0  0  0
  3  4  1  0  0  0
  4  5  2  0  0  0
  5  6  1  0  0  0
  6  7  2  0  0  0
  6 11  1  0  0  0
  7  8  1  0  0  0
  8  9  1  0  0  0
  9 10  1  0  0  0
 11 12  1  0  0  0
 11 23  1  0  0  0
 12 13  1  0  0  0
 13 14  2  0  0  0
 13 15  1  0  0  0
 15 16  1  0  0  0
 15 33  1  0  0  0
 16 17  1  0  0  0
 16 20  1  0  0  0
 17 18  1  0  0  0
 17 19  1  0  0  0
 20 21  1  0  0  0
 20 22  1  0  0  0
 23 24  2  0  0  0
 23 25  2  0  0  0
 23 26  1  0  0  0
 26 32  2  0  0  0
 26 27  1  0  0  0
 27 28  2  0  0  0
 28 29  1  0  0  0
 29 30  1  0  0  0
 29 31  2  0  0  0
 31 32  1  0  0  0
M  END
>  <CHROM.1>
-29.48533442,46.01268652,126.13124730,38.67629332,-154.04978113,-122.73939783
89.50157243,-70.96348343,178.30708588,-40.50686678,42.84643809,11.83532825
5.01944283,-1.76636291,1.49448517,-1.34323178

>  <Name>
FXR_1

>  <RI>
1.65995e+07

>  <Rbt.Current_Directory>
/home/nvk/Dropbox/D3_challenge/ivan/test-docking/src/rdock

>  <Rbt.Executable>
rbdock ($Id: //depot/dev/client3/rdock/2013.1/src/exe/rbdock.cxx#4 $)

>  <Rbt.Library>
libRbt.so (2013.1, Build901 2013/11/27)

>  <Rbt.Parameter_File>
/home/nvk/Dropbox/D3_challenge/ivan/test-docking/rDock_2013.1_src/data/scripts/dock.prm

>  <Rbt.Receptor>
rdock_input.prm

>  <SCORE>
4.54391

>  <SCORE.INTER>
-1.67637

>  <SCORE.INTER.CONST>
1

>  <SCORE.INTER.POLAR>
0

>  <SCORE.INTER.REPUL>
0

>  <SCORE.INTER.ROT>
10

>  <SCORE.INTER.VDW>
-17.0764

>  <SCORE.INTER.norm>
-0.0523865

>  <SCORE.INTRA>
6.22027

>  <SCORE.INTRA.DIHEDRAL>
3.47952

>  <SCORE.INTRA.DIHEDRAL.0>
9.43705

>  <SCORE.INTRA.POLAR>
0

>  <SCORE.INTRA.POLAR.0>
0

>  <SCORE.INTRA.REPUL>
0

>  <SCORE.INTRA.REPUL.0>
0

>  <SCORE.INTRA.VDW>
4.48052

>  <SCORE.INTRA.VDW.0>
0.0605502

>  <SCORE.INTRA.norm>
0.194384

>  <SCORE.RESTR>
0

>  <SCORE.RESTR.CAVITY>
0

>  <SCORE.RESTR.norm>
0

>  <SCORE.SYSTEM>
0

>  <SCORE.SYSTEM.CONST>
0

>  <SCORE.SYSTEM.DIHEDRAL>
0

>  <SCORE.SYSTEM.norm>
0

>  <SCORE.heavy>
32

>  <SCORE.norm>
0.141997

$$$$
FXR_1
  rDOCK(R)          3D
libRbt.so/2013.1/901 2013/11/27
 33 34  0  0  0  0  0  0  0  0999 V2000
   42.1878   13.6225   -0.5695 C   0  0  0  0  0  0
   41.4098   14.0666    0.5413 O   0  0  0  0  0  0
   41.3964   13.2264    1.6231 C   0  0  0  0  0  0
   40.3429   12.3231    1.8316 C   0  0  0  0  0  0
   40.2969   11.5235    2.9721 C   0  0  0  0  0  0
   41.3250   11.5958    3.9046 C   0  0  0  0  0  0
   42.4217   12.4164    3.6621 C   0  0  0  0  0  0
   42.4732   13.2379    2.5249 C   0  0  0  0  0  0
   43.6204   13.9834    2.4870 O   0  0  0  0  0  0
   43.5871   15.3308    2.9284 C   0  0  0  0  0  0
   41.2573   10.8381    5.1152 N   0  0  0  0  0  0
   41.1290   11.5347    6.4130 C   0  0  0  0  0  0
   42.4027   12.1485    6.9909 C   0  0  0  0  0  0
   43.3350   12.4666    6.2532 O   0  0  0  0  0  0
   42.4842   12.2419    8.3677 N   0  0  0  0  0  0
   43.6176   12.8459    9.1076 C   0  0  0  0  0  0
   43.2215   13.2047   10.5900 C   0  0  0  0  0  0
   43.7333   14.5874   11.0278 C   0  0  0  0  0  0
   41.7089   13.1825   10.8446 C   0  0  0  0  0  0
   44.8844   11.9174    9.0472 C   0  0  0  0  0  0
   44.5539   10.4281    9.1600 C   0  0  0  0  0  0
   45.7415   12.1471    7.7957 C   0  0  0  0  0  0
   40.7845    9.2099    4.9776 S   0  0  0  0  0  0
   39.8919    8.8698    6.0732 O   0  0  0  0  0  0
   40.4142    8.9122    3.6057 O   0  0  0  0  0  0
   42.3314    8.3998    5.3003 C   0  0  0  0  0  0
   42.3486    7.0161    5.4684 C   0  0  0  0  0  0
   43.5310    6.3906    5.8575 C   0  0  0  0  0  0
   44.6918    7.1457    6.0724 C   0  0  0  0  0  0
   45.9391    6.4970    6.5931 C   0  0  0  0  0  0
   44.6775    8.5252    5.8198 C   0  0  0  0  0  0
   43.4994    9.1574    5.4257 C   0  0  0  0  0  0
   41.8302   11.6771    8.8929 H   0  0  0  0  0  0
  1  2  1  0  0  0
  2  3  1  0  0  0
  3  8  2  0  0  0
  3  4  1  0  0  0
  4  5  2  0  0  0
  5  6  1  0  0  0
  6  7  2  0  0  0
  6 11  1  0  0  0
  7  8  1  0  0  0
  8  9  1  0  0  0
  9 10  1  0  0  0
 11 12  1  0  0  0
 11 23  1  0  0  0
 12 13  1  0  0  0
 13 14  2  0  0  0
 13 15  1  0  0  0
 15 16  1  0  0  0
 15 33  1  0  0  0
 16 17  1  0  0  0
 16 20  1  0  0  0
 17 18  1  0  0  0
 17 19  1  0  0  0
 20 21  1  0  0  0
 20 22  1  0  0  0
 23 24  2  0  0  0
 23 25  2  0  0  0
 23 26  1  0  0  0
 26 32  2  0  0  0
 26 27  1  0  0  0
 27 28  2  0  0  0
 28 29  1  0  0  0
 29 30  1  0  0  0
 29 31  2  0  0  0
 31 32  1  0  0  0
M  END
>  <CHROM.1>
-97.56701753,-113.44085672,79.95457323,-78.42198371,-139.60671732,24.73807903
162.12767069,-136.32476550,-38.89326938,171.10214564,42.58923811,11.18819304
5.54394289,-2.94816409,1.27994169,-3.12903637

>  <Name>
FXR_1

>  <RI>
1.65995e+07

>  <Rbt.Current_Directory>
/home/nvk/Dropbox/D3_challenge/ivan/test-docking/src/rdock

>  <Rbt.Executable>
rbdock ($Id: //depot/dev/client3/rdock/2013.1/src/exe/rbdock.cxx#4 $)

>  <Rbt.Library>
libRbt.so (2013.1, Build901 2013/11/27)

>  <Rbt.Parameter_File>
/home/nvk/Dropbox/D3_challenge/ivan/test-docking/rDock_2013.1_src/data/scripts/dock.prm

>  <Rbt.Receptor>
rdock_input.prm

>  <SCORE>
68.9309

>  <SCORE.INTER>
63.9965

>  <SCORE.INTER.CONST>
1

>  <SCORE.INTER.POLAR>
0

>  <SCORE.INTER.REPUL>
0.844938

>  <SCORE.INTER.ROT>
10

>  <SCORE.INTER.VDW>
44.3719

>  <SCORE.INTER.norm>
1.99989

>  <SCORE.INTRA>
4.93431

>  <SCORE.INTRA.DIHEDRAL>
13.7266

>  <SCORE.INTRA.DIHEDRAL.0>
9.43705

>  <SCORE.INTRA.POLAR>
0

>  <SCORE.INTRA.POLAR.0>
0

>  <SCORE.INTRA.REPUL>
0

>  <SCORE.INTRA.REPUL.0>
0

>  <SCORE.INTRA.VDW>
-1.92898

>  <SCORE.INTRA.VDW.0>
0.0605502

>  <SCORE.INTRA.norm>
0.154197

>  <SCORE.RESTR>
0

>  <SCORE.RESTR.CAVITY>
0

>  <SCORE.RESTR.norm>
0

>  <SCORE.SYSTEM>
0

>  <SCORE.SYSTEM.CONST>
0

>  <SCORE.SYSTEM.DIHEDRAL>
0

>  <SCORE.SYSTEM.norm>
0

>  <SCORE.heavy>
32

>  <SCORE.norm>
2.15409

$$$$
FXR_1
  rDOCK(R)          3D
libRbt.so/2013.1/901 2013/11/27
 33 34  0  0  0  0  0  0  0  0999 V2000
   42.0333    3.5174    4.3995 C   0  0  0  0  0  0
   42.7658    3.8635    5.5742 O   0  0  0  0  0  0
   43.0391    5.1973    5.7250 C   0  0  0  0  0  0
   44.3420    5.6961    5.5745 C   0  0  0  0  0  0
   44.6274    7.0410    5.8019 C   0  0  0  0  0  0
   43.6025    7.9119    6.1525 C   0  0  0  0  0  0
   42.2921    7.4491    6.2108 C   0  0  0  0  0  0
   41.9932    6.0940    5.9987 C   0  0  0  0  0  0
   40.6539    5.8420    6.1261 O   0  0  0  0  0  0
   40.2292    4.5879    6.6343 C   0  0  0  0  0  0
   43.8890    9.2780    6.4618 N   0  0  0  0  0  0
   43.7665    9.7584    7.8548 C   0  0  0  0  0  0
   42.9982   11.0615    8.0659 C   0  0  0  0  0  0
   41.8366   11.0447    8.4722 O   0  0  0  0  0  0
   43.6359   12.2314    7.6976 N   0  0  0  0  0  0
   43.0702   13.5909    7.8669 C   0  0  0  0  0  0
   41.5104   13.6057    7.6436 C   0  0  0  0  0  0
   40.9168   15.0244    7.6633 C   0  0  0  0  0  0
   41.0717   12.9517    6.3271 C   0  0  0  0  0  0
   43.4687   14.1936    9.2629 C   0  0  0  0  0  0
   43.1084   13.2885   10.4423 C   0  0  0  0  0  0
   44.9530   14.5705    9.3556 C   0  0  0  0  0  0
   44.8597   10.1297    5.3546 S   0  0  0  0  0  0
   45.3709   11.3355    5.9851 O   0  0  0  0  0  0
   45.7593    9.2158    4.6739 O   0  0  0  0  0  0
   43.6304   10.6417    4.1800 C   0  0  0  0  0  0
   44.0364   11.2889    3.0140 C   0  0  0  0  0  0
   43.0740   11.8155    2.1553 C   0  0  0  0  0  0
   41.7117   11.6905    2.4596 C   0  0  0  0  0  0
   40.6739   12.3450    1.5981 C   0  0  0  0  0  0
   41.3191   10.9658    3.5943 C   0  0  0  0  0  0
   42.2761   10.4320    4.4557 C   0  0  0  0  0  0
   44.4380   12.1304    7.0903 H   0  0  0  0  0  0
  1  2  1  0  0  0
  2  3  1  0  0  0
  3  8  2  0  0  0
  3  4  1  0  0  0
  4  5  2  0  0  0
  5  6  1  0  0  0
  6  7  2  0  0  0
  6 11  1  0  0  0
  7  8  1  0  0  0
  8  9  1  0  0  0
  9 10  1  0  0  0
 11 12  1  0  0  0
 11 23  1  0  0  0
 12 13  1  0  0  0
 13 14  2  0  0  0
 13 15  1  0  0  0
 15 16  1  0  0  0
 15 33  1  0  0  0
 16 17  1  0  0  0
 16 20  1  0  0  0
 17 18  1  0  0  0
 17 19  1  0  0  0
 20 21  1  0  0  0
 20 22  1  0  0  0
 23 24  2  0  0  0
 23 25  2  0  0  0
 23 26  1  0  0  0
 26 32  2  0  0  0
 26 27  1  0  0  0
 27 28  2  0  0  0
 28 29  1  0  0  0
 29 30  1  0  0  0
 29 31  2  0  0  0
 31 32  1  0  0  0
M  END
>  <CHROM.1>
-109.02552899,-109.57781447,31.25278363,-132.22745955,-163.46763624,101.72354156
-35.45482822,-173.82880521,-53.76368504,-174.33391242,42.96278290,9.93427974
6.03854285,-1.98859427,-1.44508805,-0.15417798

>  <Name>
FXR_1

>  <RI>
1.65995e+07

>  <Rbt.Current_Directory>
/home/nvk/Dropbox/D3_challenge/ivan/test-docking/src/rdock

>  <Rbt.Executable>
rbdock ($Id: //depot/dev/client3/rdock/2013.1/src/exe/rbdock.cxx#4 $)

>  <Rbt.Library>
libRbt.so (2013.1, Build901 2013/11/27)

>  <Rbt.Parameter_File>
/home/nvk/Dropbox/D3_challenge/ivan/test-docking/rDock_2013.1_src/data/scripts/dock.prm

>  <Rbt.Receptor>
rdock_input.prm

>  <SCORE>
30.0153

>  <SCORE.INTER>
32.08

>  <SCORE.INTER.CONST>
1

>  <SCORE.INTER.POLAR>
0

>  <SCORE.INTER.REPUL>
0.00561119

>  <SCORE.INTER.ROT>
10

>  <SCORE.INTER.VDW>
16.652

>  <SCORE.INTER.norm>
1.0025

>  <SCORE.INTRA>
-2.06478

>  <SCORE.INTRA.DIHEDRAL>
3.92023

>  <SCORE.INTRA.DIHEDRAL.0>
9.43705

>  <SCORE.INTRA.POLAR>
-0.98544

>  <SCORE.INTRA.POLAR.0>
0

>  <SCORE.INTRA.REPUL>
0

>  <SCORE.INTRA.REPUL.0>
0

>  <SCORE.INTRA.VDW>
-0.674397

>  <SCORE.INTRA.VDW.0>
0.0605502

>  <SCORE.INTRA.norm>
-0.0645242

>  <SCORE.RESTR>
0

>  <SCORE.RESTR.CAVITY>
0

>  <SCORE.RESTR.norm>
0

>  <SCORE.SYSTEM>
0

>  <SCORE.SYSTEM.CONST>
0

>  <SCORE.SYSTEM.DIHEDRAL>
0

>  <SCORE.SYSTEM.norm>
0

>  <SCORE.heavy>
32

>  <SCORE.norm>
0.937977

$$$$
FXR_1
  rDOCK(R)          3D
libRbt.so/2013.1/901 2013/11/27
 33 34  0  0  0  0  0  0  0  0999 V2000
   41.6241   14.0866   -0.4702 C   0  0  0  0  0  0
   40.5899   14.0920    0.5130 O   0  0  0  0  0  0
   40.8769   13.4205    1.6720 C   0  0  0  0  0  0
   40.5268   13.9462    2.9250 C   0  0  0  0  0  0
   40.8868   13.2954    4.1035 C   0  0  0  0  0  0
   41.5759   12.0900    4.0406 C   0  0  0  0  0  0
   41.8440   11.5109    2.8046 C   0  0  0  0  0  0
   41.5002   12.1633    1.6101 C   0  0  0  0  0  0
   41.8729   11.4400    0.5095 O   0  0  0  0  0  0
   43.2442   11.1381    0.3095 C   0  0  0  0  0  0
   42.0179   11.4468    5.2385 N   0  0  0  0  0  0
   41.3129   10.2441    5.7309 C   0  0  0  0  0  0
   41.8001    8.8976    5.1992 C   0  0  0  0  0  0
   41.8075    8.6673    3.9903 O   0  0  0  0  0  0
   42.1402    7.9399    6.1364 N   0  0  0  0  0  0
   42.6729    6.5948    5.8143 C   0  0  0  0  0  0
   44.2226    6.5013    6.0839 C   0  0  0  0  0  0
   44.9422    5.5497    5.1132 C   0  0  0  0  0  0
   44.9428    7.8536    6.0064 C   0  0  0  0  0  0
   41.8755    5.4782    6.5813 C   0  0  0  0  0  0
   40.4118    5.8416    6.8369 C   0  0  0  0  0  0
   41.9389    4.1097    5.8908 C   0  0  0  0  0  0
   43.6182   11.7505    5.7287 S   0  0  0  0  0  0
   44.3185   10.4893    5.9072 O   0  0  0  0  0  0
   44.1967   12.8062    4.9171 O   0  0  0  0  0  0
   43.3345   12.4183    7.3494 C   0  0  0  0  0  0
   42.5811   13.5839    7.4788 C   0  0  0  0  0  0
   42.4700   14.1895    8.7285 C   0  0  0  0  0  0
   43.1057   13.6283    9.8443 C   0  0  0  0  0  0
   43.0805   14.3284   11.1698 C   0  0  0  0  0  0
   43.7914   12.4119    9.7119 C   0  0  0  0  0  0
   43.9028   11.7977    8.4656 C   0  0  0  0  0  0
   41.8061    8.0982    7.0776 H   0  0  0  0  0  0
  1  2  1  0  0  0
  2  3  1  0  0  0
  3  8  2  0  0  0
  3  4  1  0  0  0
  4  5  2  0  0  0
  5  6  1  0  0  0
  6  7  2  0  0  0
  6 11  1  0  0  0
  7  8  1  0  0  0
  8  9  1  0  0  0
  9 10  1  0  0  0
 11 12  1  0  0  0
 11 23  1  0  0  0
 12 13  1  0  0  0
 13 14  2  0  0  0
 13 15  1  0  0  0
 15 16  1  0  0  0
 15 33  1  0  0  0
 16 17  1  0  0  0
 16 20  1  0  0  0
 17 18  1  0  0  0
 17 19  1  0  0  0
 20 21  1  0  0  0
 20 22  1  0  0  0
 23 24  2  0  0  0
 23 25  2  0  0  0
 23 26  1  0  0  0
 26 32  2  0  0  0
 26 27  1  0  0  0
 27 28  2  0  0  0
 28 29  1  0  0  0
 29 30  1  0  0  0
 29 31  2  0  0  0
 31 32  1  0  0  0
M  END
>  <CHROM.1>
138.11254445,105.69085274,117.97389882,88.52912418,-125.75268082,-58.11490757
104.26655411,-147.62541457,30.60579593,-60.77883410,42.53237823,10.72432898
5.14720219,2.44199008,-1.35078484,0.21446725

>  <Name>
FXR_1

>  <RI>
1.65995e+07

>  <Rbt.Current_Directory>
/home/nvk/Dropbox/D3_challenge/ivan/test-docking/src/rdock

>  <Rbt.Executable>
rbdock ($Id: //depot/dev/client3/rdock/2013.1/src/exe/rbdock.cxx#4 $)

>  <Rbt.Library>
libRbt.so (2013.1, Build901 2013/11/27)

>  <Rbt.Parameter_File>
/home/nvk/Dropbox/D3_challenge/ivan/test-docking/rDock_2013.1_src/data/scripts/dock.prm

>  <Rbt.Receptor>
rdock_input.prm

>  <SCORE>
21.6663

>  <SCORE.INTER>
16.2104

>  <SCORE.INTER.CONST>
1

>  <SCORE.INTER.POLAR>
0

>  <SCORE.INTER.REPUL>
0.488117

>  <SCORE.INTER.ROT>
10

>  <SCORE.INTER.VDW>
-1.63019

>  <SCORE.INTER.norm>
0.506575

>  <SCORE.INTRA>
5.45541

>  <SCORE.INTRA.DIHEDRAL>
9.23791

>  <SCORE.INTRA.DIHEDRAL.0>
9.43705

>  <SCORE.INTRA.POLAR>
0

>  <SCORE.INTRA.POLAR.0>
0

>  <SCORE.INTRA.REPUL>
0

>  <SCORE.INTRA.REPUL.0>
0

>  <SCORE.INTRA.VDW>
0.836458

>  <SCORE.INTRA.VDW.0>
0.0605502

>  <SCORE.INTRA.norm>
0.170482

>  <SCORE.RESTR>
0.000518232

>  <SCORE.RESTR.CAVITY>
0.000518232

>  <SCORE.RESTR.norm>
1.61948e-05

>  <SCORE.SYSTEM>
0

>  <SCORE.SYSTEM.CONST>
0

>  <SCORE.SYSTEM.DIHEDRAL>
0

>  <SCORE.SYSTEM.norm>
0

>  <SCORE.heavy>
32

>  <SCORE.norm>
0.677073

$$$$
FXR_1
  rDOCK(R)          3D
libRbt.so/2013.1/901 2013/11/27
 33 34  0  0  0  0  0  0  0  0999 V2000
   41.1240   15.7782   -1.2256 C   0  0  0  0  0  0
   40.8927   14.3963   -0.9551 O   0  0  0  0  0  0
   41.1511   13.9974    0.3297 C   0  0  0  0  0  0
   40.1856   14.1232    1.3402 C   0  0  0  0  0  0
   40.4784   13.7853    2.6601 C   0  0  0  0  0  0
   41.7354   13.2854    2.9794 C   0  0  0  0  0  0
   42.6683   13.0658    1.9712 C   0  0  0  0  0  0
   42.3913   13.4158    0.6403 C   0  0  0  0  0  0
   43.4463   13.1432   -0.1880 O   0  0  0  0  0  0
   43.2247   12.3889   -1.3684 C   0  0  0  0  0  0
   42.0773   13.0039    4.3387 N   0  0  0  0  0  0
   41.8064   14.0089    5.3888 C   0  0  0  0  0  0
   41.6158   13.4819    6.8097 C   0  0  0  0  0  0
   40.4990   13.1578    7.2128 O   0  0  0  0  0  0
   42.7287   13.4742    7.6297 N   0  0  0  0  0  0
   42.7499   12.9610    9.0200 C   0  0  0  0  0  0
   43.0084   11.4072    9.0644 C   0  0  0  0  0  0
   41.7424   10.5818    8.7791 C   0  0  0  0  0  0
   44.0858   10.9350    8.0798 C   0  0  0  0  0  0
   43.7885   13.7537    9.8939 C   0  0  0  0  0  0
   44.9051   14.4025    9.0740 C   0  0  0  0  0  0
   43.1378   14.8192   10.7856 C   0  0  0  0  0  0
   42.2641   11.3668    4.7613 S   0  0  0  0  0  0
   43.6741   11.0151    4.7284 O   0  0  0  0  0  0
   41.4542   11.0566    5.9257 O   0  0  0  0  0  0
   41.5036   10.5862    3.3593 C   0  0  0  0  0  0
   40.1177   10.6447    3.2213 C   0  0  0  0  0  0
   39.5023    9.9202    2.2029 C   0  0  0  0  0  0
   40.2706    9.1451    1.3238 C   0  0  0  0  0  0
   39.6105    8.2795    0.2929 C   0  0  0  0  0  0
   41.6693    9.1626    1.4266 C   0  0  0  0  0  0
   42.2925    9.8887    2.4400 C   0  0  0  0  0  0
   43.5088   14.0428    7.3286 H   0  0  0  0  0  0
  1  2  1  0  0  0
  2  3  1  0  0  0
  3  8  2  0  0  0
  3  4  1  0  0  0
  4  5  2  0  0  0
  5  6  1  0  0  0
  6  7  2  0  0  0
  6 11  1  0  0  0
  7  8  1  0  0  0
  8  9  1  0  0  0
  9 10  1  0  0  0
 11 12  1  0  0  0
 11 23  1  0  0  0
 12 13  1  0  0  0
 13 14  2  0  0  0
 13 15  1  0  0  0
 15 16  1  0  0  0
 15 33  1  0  0  0
 16 17  1  0  0  0
 16 20  1  0  0  0
 17 18  1  0  0  0
 17 19  1  0  0  0
 20 21  1  0  0  0
 20 22  1  0  0  0
 23 24  2  0  0  0
 23 25  2  0  0  0
 23 26  1  0  0  0
 26 32  2  0  0  0
 26 27  1  0  0  0
 27 28  2  0  0  0
 28 29  1  0  0  0
 29 30  1  0  0  0
 29 31  2  0  0  0
 31 32  1  0  0  0
M  END
>  <CHROM.1>
85.40788490,-48.22750665,-52.82347434,154.42990749,97.33065876,-89.35756031
85.74553984,-80.31893720,-24.31081590,-72.29887612,41.97732968,12.30920014
4.18654146,-2.30475883,1.28286653,2.21852319

>  <Name>
FXR_1

>  <RI>
1.65995e+07

>  <Rbt.Current_Directory>
/home/nvk/Dropbox/D3_challenge/ivan/test-docking/src/rdock

>  <Rbt.Executable>
rbdock ($Id: //depot/dev/client3/rdock/2013.1/src/exe/rbdock.cxx#4 $)

>  <Rbt.Library>
libRbt.so (2013.1, Build901 2013/11/27)

>  <Rbt.Parameter_File>
/home/nvk/Dropbox/D3_challenge/ivan/test-docking/rDock_2013.1_src/data/scripts/dock.prm

>  <Rbt.Receptor>
rdock_input.prm

>  <SCORE>
79.9543

>  <SCORE.INTER>
74.6555

>  <SCORE.INTER.CONST>
1

>  <SCORE.INTER.POLAR>
0

>  <SCORE.INTER.REPUL>
0

>  <SCORE.INTER.ROT>
10

>  <SCORE.INTER.VDW>
59.2555

>  <SCORE.INTER.norm>
2.33299

>  <SCORE.INTRA>
5.27119

>  <SCORE.INTRA.DIHEDRAL>
12.0311

>  <SCORE.INTRA.DIHEDRAL.0>
9.43705

>  <SCORE.INTRA.POLAR>
0

>  <SCORE.INTRA.POLAR.0>
0

>  <SCORE.INTRA.REPUL>
0

>  <SCORE.INTRA.REPUL.0>
0

>  <SCORE.INTRA.VDW>
-0.744361

>  <SCORE.INTRA.VDW.0>
0.0605502

>  <SCORE.INTRA.norm>
0.164725

>  <SCORE.RESTR>
0.0275717

>  <SCORE.RESTR.CAVITY>
0.0275717

>  <SCORE.RESTR.norm>
0.000861616

>  <SCORE.SYSTEM>
0

>  <SCORE.SYSTEM.CONST>
0

>  <SCORE.SYSTEM.DIHEDRAL>
0

>  <SCORE.SYSTEM.norm>
0

>  <SCORE.heavy>
32

>  <SCORE.norm>
2.49857

$$$$
FXR_1
  rDOCK(R)          3D
libRbt.so/2013.1/901 2013/11/27
 33 34  0  0  0  0  0  0  0  0999 V2000
   41.7943    3.9013    4.8410 C   0  0  0  0  0  0
   41.2485    4.5130    6.0089 O   0  0  0  0  0  0
   41.5885    5.8264    6.1982 C   0  0  0  0  0  0
   40.6847    6.7394    6.7627 C   0  0  0  0  0  0
   41.0086    8.0894    6.8845 C   0  0  0  0  0  0
   42.2577    8.5370    6.4708 C   0  0  0  0  0  0
   43.1970    7.6259    5.9991 C   0  0  0  0  0  0
   42.8782    6.2661    5.8574 C   0  0  0  0  0  0
   43.9286    5.5467    5.3547 O   0  0  0  0  0  0
   45.2538    5.9789    5.6165 C   0  0  0  0  0  0
   42.5791    9.9293    6.5195 N   0  0  0  0  0  0
   41.4990   10.9366    6.4498 C   0  0  0  0  0  0
   41.7763   12.1827    5.6112 C   0  0  0  0  0  0
   41.6357   13.3061    6.0936 O   0  0  0  0  0  0
   42.1002   11.9840    4.2821 N   0  0  0  0  0  0
   42.4438   13.0633    3.3261 C   0  0  0  0  0  0
   43.4685   12.5714    2.2348 C   0  0  0  0  0  0
   44.6804   11.8415    2.8381 C   0  0  0  0  0  0
   42.8510   11.6327    1.1904 C   0  0  0  0  0  0
   41.1471   13.6736    2.6805 C   0  0  0  0  0  0
   40.2182   14.3424    3.6954 C   0  0  0  0  0  0
   41.4461   14.6630    1.5468 C   0  0  0  0  0  0
   44.0852   10.3476    7.1903 S   0  0  0  0  0  0
   44.5395    9.2800    8.0660 O   0  0  0  0  0  0
   44.9600   10.8783    6.1603 O   0  0  0  0  0  0
   43.6053   11.7026    8.2328 C   0  0  0  0  0  0
   44.2728   12.9202    8.1103 C   0  0  0  0  0  0
   43.9981   13.9431    9.0152 C   0  0  0  0  0  0
   43.0562   13.7501   10.0348 C   0  0  0  0  0  0
   42.8311   14.8049   11.0760 C   0  0  0  0  0  0
   42.3354   12.5483   10.0935 C   0  0  0  0  0  0
   42.6015   11.5220    9.1886 C   0  0  0  0  0  0
   41.8828   11.0729    3.9011 H   0  0  0  0  0  0
  1  2  1  0  0  0
  2  3  1  0  0  0
  3  8  2  0  0  0
  3  4  1  0  0  0
  4  5  2  0  0  0
  5  6  1  0  0  0
  6  7  2  0  0  0
  6 11  1  0  0  0
  7  8  1  0  0  0
  8  9  1  0  0  0
  9 10  1  0  0  0
 11 12  1  0  0  0
 11 23  1  0  0  0
 12 13  1  0  0  0
 13 14  2  0  0  0
 13 15  1  0  0  0
 15 16  1  0  0  0
 15 33  1  0  0  0
 16 17  1  0  0  0
 16 20  1  0  0  0
 17 18  1  0  0  0
 17 19  1  0  0  0
 20 21  1  0  0  0
 20 22  1  0  0  0
 23 24  2  0  0  0
 23 25  2  0  0  0
 23 26  1  0  0  0
 26 32  2  0  0  0
 26 27  1  0  0  0
 27 28  2  0  0  0
 28 29  1  0  0  0
 29 30  1  0  0  0
 29 31  2  0  0  0
 31 32  1  0  0  0
M  END
>  <CHROM.1>
144.92078063,-25.65643042,-152.41214387,-139.93372653,-22.79357593,-126.58122657
148.68345398,-49.14283007,62.76757123,-126.93593114,42.76013572,10.43389993
6.03681137,1.47353827,1.41617120,-3.04182300

>  <Name>
FXR_1

>  <RI>
1.65995e+07

>  <Rbt.Current_Directory>
/home/nvk/Dropbox/D3_challenge/ivan/test-docking/src/rdock

>  <Rbt.Executable>
rbdock ($Id: //depot/dev/client3/rdock/2013.1/src/exe/rbdock.cxx#4 $)

>  <Rbt.Library>
libRbt.so (2013.1, Build901 2013/11/27)

>  <Rbt.Parameter_File>
/home/nvk/Dropbox/D3_challenge/ivan/test-docking/rDock_2013.1_src/data/scripts/dock.prm

>  <Rbt.Receptor>
rdock_input.prm

>  <SCORE>
6.44441

>  <SCORE.INTER>
-0.484514

>  <SCORE.INTER.CONST>
1

>  <SCORE.INTER.POLAR>
0

>  <SCORE.INTER.REPUL>
0.00113743

>  <SCORE.INTER.ROT>
10

>  <SCORE.INTER.VDW>
-15.8902

>  <SCORE.INTER.norm>
-0.0151411

>  <SCORE.INTRA>
6.92892

>  <SCORE.INTRA.DIHEDRAL>
0.483326

>  <SCORE.INTRA.DIHEDRAL.0>
9.43705

>  <SCORE.INTRA.POLAR>
0

>  <SCORE.INTRA.POLAR.0>
0

>  <SCORE.INTRA.REPUL>
0

>  <SCORE.INTRA.REPUL.0>
0

>  <SCORE.INTRA.VDW>
6.68726

>  <SCORE.INTRA.VDW.0>
0.0605502

>  <SCORE.INTRA.norm>
0.216529

>  <SCORE.RESTR>
0

>  <SCORE.RESTR.CAVITY>
0

>  <SCORE.RESTR.norm>
0

>  <SCORE.SYSTEM>
0

>  <SCORE.SYSTEM.CONST>
0

>  <SCORE.SYSTEM.DIHEDRAL>
0

>  <SCORE.SYSTEM.norm>
0

>  <SCORE.heavy>
32

>  <SCORE.norm>
0.201388

$$$$
FXR_1
  rDOCK(R)          3D
libRbt.so/2013.1/901 2013/11/27
 33 34  0  0  0  0  0  0  0  0999 V2000
   45.8278    7.8925    4.5435 C   0  0  0  0  0  0
   46.2918    9.2375    4.4344 O   0  0  0  0  0  0
   45.3276   10.2034    4.5512 C   0  0  0  0  0  0
   45.2337   11.2554    3.6273 C   0  0  0  0  0  0
   44.2989   12.2757    3.7923 C   0  0  0  0  0  0
   43.4225   12.2377    4.8704 C   0  0  0  0  0  0
   43.4417   11.1511    5.7387 C   0  0  0  0  0  0
   44.3881   10.1246    5.5923 C   0  0  0  0  0  0
   44.2539    9.1667    6.5607 O   0  0  0  0  0  0
   43.2682    8.1585    6.4074 C   0  0  0  0  0  0
   42.5077   13.3129    5.0965 N   0  0  0  0  0  0
   42.4156   14.4183    4.1189 C   0  0  0  0  0  0
   41.9843   14.0465    2.7016 C   0  0  0  0  0  0
   41.7348   14.9216    1.8731 O   0  0  0  0  0  0
   41.8066   12.7021    2.4333 N   0  0  0  0  0  0
   41.4344   12.1469    1.1104 C   0  0  0  0  0  0
   42.6637   12.1132    0.1252 C   0  0  0  0  0  0
   42.2566   12.3025   -1.3459 C   0  0  0  0  0  0
   43.7307   13.1703    0.4372 C   0  0  0  0  0  0
   40.7670   10.7321    1.2643 C   0  0  0  0  0  0
   41.6637    9.7084    1.9628 C   0  0  0  0  0  0
   39.4101   10.7798    1.9787 C   0  0  0  0  0  0
   41.2130   13.0106    6.1574 S   0  0  0  0  0  0
   40.2127   14.0551    6.0121 O   0  0  0  0  0  0
   40.8318   11.6111    6.0932 O   0  0  0  0  0  0
   42.0127   13.2744    7.7207 C   0  0  0  0  0  0
   42.1845   12.1934    8.5840 C   0  0  0  0  0  0
   42.6842   12.4161    9.8652 C   0  0  0  0  0  0
   43.0152   13.7136   10.2786 C   0  0  0  0  0  0
   43.4525   13.9776   11.6882 C   0  0  0  0  0  0
   42.9129   14.7773    9.3702 C   0  0  0  0  0  0
   42.4182   14.5615    8.0851 C   0  0  0  0  0  0
   41.7220   12.0940    3.2368 H   0  0  0  0  0  0
  1  2  1  0  0  0
  2  3  1  0  0  0
  3  8  2  0  0  0
  3  4  1  0  0  0
  4  5  2  0  0  0
  5  6  1  0  0  0
  6  7  2  0  0  0
  6 11  1  0  0  0
  7  8  1  0  0  0
  8  9  1  0  0  0
  9 10  1  0  0  0
 11 12  1  0  0  0
 11 23  1  0  0  0
 12 13  1  0  0  0
 13 14  2  0  0  0
 13 15  1  0  0  0
 15 16  1  0  0  0
 15 33  1  0  0  0
 16 17  1  0  0  0
 16 20  1  0  0  0
 17 18  1  0  0  0
 17 19  1  0  0  0
 20 21  1  0  0  0
 20 22  1  0  0  0
 23 24  2  0  0  0
 23 25  2  0  0  0
 23 26  1  0  0  0
 26 32  2  0  0  0
 26 27  1  0  0  0
 27 28  2  0  0  0
 28 29  1  0  0  0
 29 30  1  0  0  0
 29 31  2  0  0  0
 31 32  1  0  0  0
M  END
>  <CHROM.1>
-131.58419942,4.99267594,-99.92680000,61.26666520,-165.50681204,171.58307834
77.20312051,-148.54818251,-58.64420234,-113.50237847,42.70214339,12.05287633
4.86313329,-1.66938659,-0.93697310,1.34218338

>  <Name>
FXR_1

>  <RI>
1.65995e+07

>  <Rbt.Current_Directory>
/home/nvk/Dropbox/D3_challenge/ivan/test-docking/src/rdock

>  <Rbt.Executable>
rbdock ($Id: //depot/dev/client3/rdock/2013.1/src/exe/rbdock.cxx#4 $)

>  <Rbt.Library>
libRbt.so (2013.1, Build901 2013/11/27)

>  <Rbt.Parameter_File>
/home/nvk/Dropbox/D3_challenge/ivan/test-docking/rDock_2013.1_src/data/scripts/dock.prm

>  <Rbt.Receptor>
rdock_input.prm

>  <SCORE>
57.9512

>  <SCORE.INTER>
52.9379

>  <SCORE.INTER.CONST>
1

>  <SCORE.INTER.POLAR>
0

>  <SCORE.INTER.REPUL>
0.000628462

>  <SCORE.INTER.ROT>
10

>  <SCORE.INTER.VDW>
37.5347

>  <SCORE.INTER.norm>
1.65431

>  <SCORE.INTRA>
4.72013

>  <SCORE.INTRA.DIHEDRAL>
8.01819

>  <SCORE.INTRA.DIHEDRAL.0>
9.43705

>  <SCORE.INTRA.POLAR>
0

>  <SCORE.INTRA.POLAR.0>
0

>  <SCORE.INTRA.REPUL>
0

>  <SCORE.INTRA.REPUL.0>
0

>  <SCORE.INTRA.VDW>
0.711033

>  <SCORE.INTRA.VDW.0>
0.0605502

>  <SCORE.INTRA.norm>
0.147504

>  <SCORE.RESTR>
0.293191

>  <SCORE.RESTR.CAVITY>
0.293191

>  <SCORE.RESTR.norm>
0.0091622

>  <SCORE.SYSTEM>
0

>  <SCORE.SYSTEM.CONST>
0

>  <SCORE.SYSTEM.DIHEDRAL>
0

>  <SCORE.SYSTEM.norm>
0

>  <SCORE.heavy>
32

>  <SCORE.norm>
1.81097

$$$$
FXR_1
  rDOCK(R)          3D
libRbt.so/2013.1/901 2013/11/27
 33 34  0  0  0  0  0  0  0  0999 V2000
   41.6037    6.8569    6.3639 C   0  0  0  0  0  0
   42.2086    7.2203    5.1235 O   0  0  0  0  0  0
   42.1549    8.5530    4.8114 C   0  0  0  0  0  0
   41.0652    9.0948    4.1129 C   0  0  0  0  0  0
   41.0499   10.4355    3.7329 C   0  0  0  0  0  0
   42.1145   11.2600    4.0770 C   0  0  0  0  0  0
   43.1550   10.7582    4.8520 C   0  0  0  0  0  0
   43.1897    9.4062    5.2284 C   0  0  0  0  0  0
   44.3062    9.1109    5.9631 O   0  0  0  0  0  0
   44.6805    7.7546    6.1416 C   0  0  0  0  0  0
   42.1501   12.6182    3.6318 N   0  0  0  0  0  0
   41.3165   13.6358    4.3068 C   0  0  0  0  0  0
   41.1948   13.5254    5.8254 C   0  0  0  0  0  0
   40.1549   13.1182    6.3423 O   0  0  0  0  0  0
   42.2626   13.9835    6.5744 N   0  0  0  0  0  0
   42.3465   13.9194    8.0527 C   0  0  0  0  0  0
   41.6774   12.6097    8.6187 C   0  0  0  0  0  0
   42.1692   11.3342    7.9138 C   0  0  0  0  0  0
   41.8986   12.4072   10.1231 C   0  0  0  0  0  0
   43.8340   14.0744    8.5366 C   0  0  0  0  0  0
   43.9579   14.4461   10.0153 C   0  0  0  0  0  0
   44.6912   12.8328    8.2585 C   0  0  0  0  0  0
   43.5154   13.0989    2.7384 S   0  0  0  0  0  0
   43.9116   14.4383    3.1407 O   0  0  0  0  0  0
   44.4896   12.0230    2.6984 O   0  0  0  0  0  0
   42.8045   13.2351    1.1169 C   0  0  0  0  0  0
   43.3799   12.5258    0.0638 C   0  0  0  0  0  0
   42.9157   12.7336   -1.2331 C   0  0  0  0  0  0
   41.8771   13.6431   -1.4743 C   0  0  0  0  0  0
   41.4429   13.9523   -2.8755 C   0  0  0  0  0  0
   41.2553   14.2868   -0.3943 C   0  0  0  0  0  0
   41.7112   14.0803    0.9066 C   0  0  0  0  0  0
   42.9209   14.5819    6.0936 H   0  0  0  0  0  0
  1  2  1  0  0  0
  2  3  1  0  0  0
  3  8  2  0  0  0
  3  4  1  0  0  0
  4  5  2  0  0  0
  5  6  1  0  0  0
  6  7  2  0  0  0
  6 11  1  0  0  0
  7  8  1  0  0  0
  8  9  1  0  0  0
  9 10  1  0  0  0
 11 12  1  0  0  0
 11 23  1  0  0  0
 12 13  1  0  0  0
 13 14  2  0  0  0
 13 15  1  0  0  0
 15 16  1  0  0  0
 15 33  1  0  0  0
 16 17  1  0  0  0
 16 20  1  0  0  0
 17 18  1  0  0  0
 17 19  1  0  0  0
 20 21  1  0  0  0
 20 22  1  0  0  0
 23 24  2  0  0  0
 23 25  2  0  0  0
 23 26  1  0  0  0
 26 32  2  0  0  0
 26 27  1  0  0  0
 27 28  2  0  0  0
 28 29  1  0  0  0
 29 30  1  0  0  0
 29 31  2  0  0  0
 31 32  1  0  0  0
M  END
>  <CHROM.1>
-88.42974052,77.49094884,14.27429111,38.83607510,-140.09926151,-105.99308992
35.72954818,50.26574335,162.26597073,-125.30595135,42.58555787,11.99064086
4.49727542,0.02193087,1.51426183,-2.94663293

>  <Name>
FXR_1

>  <RI>
1.65995e+07

>  <Rbt.Current_Directory>
/home/nvk/Dropbox/D3_challenge/ivan/test-docking/src/rdock

>  <Rbt.Executable>
rbdock ($Id: //depot/dev/client3/rdock/2013.1/src/exe/rbdock.cxx#4 $)

>  <Rbt.Library>
libRbt.so (2013.1, Build901 2013/11/27)

>  <Rbt.Parameter_File>
/home/nvk/Dropbox/D3_challenge/ivan/test-docking/rDock_2013.1_src/data/scripts/dock.prm

>  <Rbt.Receptor>
rdock_input.prm

>  <SCORE>
12.5846

>  <SCORE.INTER>
3.74384

>  <SCORE.INTER.CONST>
1

>  <SCORE.INTER.POLAR>
0

>  <SCORE.INTER.REPUL>
0

>  <SCORE.INTER.ROT>
10

>  <SCORE.INTER.VDW>
-11.6562

>  <SCORE.INTER.norm>
0.116995

>  <SCORE.INTRA>
8.84081

>  <SCORE.INTRA.DIHEDRAL>
4.52202

>  <SCORE.INTRA.DIHEDRAL.0>
9.43705

>  <SCORE.INTRA.POLAR>
0

>  <SCORE.INTRA.POLAR.0>
0

>  <SCORE.INTRA.REPUL>
0

>  <SCORE.INTRA.REPUL.0>
0

>  <SCORE.INTRA.VDW>
6.57979

>  <SCORE.INTRA.VDW.0>
0.0605502

>  <SCORE.INTRA.norm>
0.276275

>  <SCORE.RESTR>
0

>  <SCORE.RESTR.CAVITY>
0

>  <SCORE.RESTR.norm>
0

>  <SCORE.SYSTEM>
0

>  <SCORE.SYSTEM.CONST>
0

>  <SCORE.SYSTEM.DIHEDRAL>
0

>  <SCORE.SYSTEM.norm>
0

>  <SCORE.heavy>
32

>  <SCORE.norm>
0.39327

$$$$
FXR_1
  rDOCK(R)          3D
libRbt.so/2013.1/901 2013/11/27
 33 34  0  0  0  0  0  0  0  0999 V2000
   41.1207    4.9431    6.5068 C   0  0  0  0  0  0
   42.4174    5.4797    6.2480 O   0  0  0  0  0  0
   42.5071    6.8460    6.2888 C   0  0  0  0  0  0
   41.3585    7.6515    6.3165 C   0  0  0  0  0  0
   41.4544    9.0414    6.2828 C   0  0  0  0  0  0
   42.7065    9.6439    6.2533 C   0  0  0  0  0  0
   43.8529    8.8591    6.3227 C   0  0  0  0  0  0
   43.7703    7.4578    6.3419 C   0  0  0  0  0  0
   45.0083    6.8754    6.3850 O   0  0  0  0  0  0
   45.3322    5.8641    5.4449 C   0  0  0  0  0  0
   42.8226   11.0646    6.1435 N   0  0  0  0  0  0
   43.8684   11.6528    5.2795 C   0  0  0  0  0  0
   43.4799   11.9389    3.8303 C   0  0  0  0  0  0
   43.9131   12.9343    3.2507 O   0  0  0  0  0  0
   42.5629   11.0843    3.2472 N   0  0  0  0  0  0
   42.0989   11.1745    1.8424 C   0  0  0  0  0  0
   40.5568   11.4866    1.7564 C   0  0  0  0  0  0
   39.6804   10.2617    2.0678 C   0  0  0  0  0  0
   40.1046   12.6143    2.6930 C   0  0  0  0  0  0
   42.9545   12.2177    1.0358 C   0  0  0  0  0  0
   43.1369   11.8470   -0.4370 C   0  0  0  0  0  0
   42.4064   13.6476    1.1285 C   0  0  0  0  0  0
   41.4518   11.9823    6.5582 S   0  0  0  0  0  0
   41.1773   12.9470    5.5061 O   0  0  0  0  0  0
   40.4000   11.1123    7.0530 O   0  0  0  0  0  0
   42.0851   12.8946    7.9438 C   0  0  0  0  0  0
   43.0861   13.8410    7.7305 C   0  0  0  0  0  0
   43.6841   14.4604    8.8257 C   0  0  0  0  0  0
   43.2787   14.1380   10.1279 C   0  0  0  0  0  0
   43.9875   14.7191   11.3142 C   0  0  0  0  0  0
   42.2148   13.2446   10.3209 C   0  0  0  0  0  0
   41.6085   12.6244    9.2297 C   0  0  0  0  0  0
   42.0304   10.5022    3.8796 H   0  0  0  0  0  0
  1  2  1  0  0  0
  2  3  1  0  0  0
  3  8  2  0  0  0
  3  4  1  0  0  0
  4  5  2  0  0  0
  5  6  1  0  0  0
  6  7  2  0  0  0
  6 11  1  0  0  0
  7  8  1  0  0  0
  8  9  1  0  0  0
  9 10  1  0  0  0
 11 12  1  0  0  0
 11 23  1  0  0  0
 12 13  1  0  0  0
 13 14  2  0  0  0
 13 15  1  0  0  0
 15 16  1  0  0  0
 15 33  1  0  0  0
 16 17  1  0  0  0
 16 20  1  0  0  0
 17 18  1  0  0  0
 17 19  1  0  0  0
 20 21  1  0  0  0
 20 22  1  0  0  0
 23 24  2  0  0  0
 23 25  2  0  0  0
 23 26  1  0  0  0
 26 32  2  0  0  0
 26 27  1  0  0  0
 27 28  2  0  0  0
 28 29  1  0  0  0
 29 30  1  0  0  0
 29 31  2  0  0  0
 31 32  1  0  0  0
M  END
>  <CHROM.1>
-12.13011129,-139.66455438,49.74647665,91.09562980,-130.74816666,143.39602498
-116.34570563,-76.07395701,146.96892314,66.92010491,42.45107345,10.84448289
5.56247701,-2.08482617,-1.43544666,0.54898523

>  <Name>
FXR_1

>  <RI>
1.65995e+07

>  <Rbt.Current_Directory>
/home/nvk/Dropbox/D3_challenge/ivan/test-docking/src/rdock

>  <Rbt.Executable>
rbdock ($Id: //depot/dev/client3/rdock/2013.1/src/exe/rbdock.cxx#4 $)

>  <Rbt.Library>
libRbt.so (2013.1, Build901 2013/11/27)

>  <Rbt.Parameter_File>
/home/nvk/Dropbox/D3_challenge/ivan/test-docking/rDock_2013.1_src/data/scripts/dock.prm

>  <Rbt.Receptor>
rdock_input.prm

>  <SCORE>
16.0148

>  <SCORE.INTER>
3.48345

>  <SCORE.INTER.CONST>
1

>  <SCORE.INTER.POLAR>
0

>  <SCORE.INTER.REPUL>
0

>  <SCORE.INTER.ROT>
10

>  <SCORE.INTER.VDW>
-11.9165

>  <SCORE.INTER.norm>
0.108858

>  <SCORE.INTRA>
12.5313

>  <SCORE.INTRA.DIHEDRAL>
4.75148

>  <SCORE.INTRA.DIHEDRAL.0>
9.43705

>  <SCORE.INTRA.POLAR>
0

>  <SCORE.INTRA.POLAR.0>
0

>  <SCORE.INTRA.REPUL>
0

>  <SCORE.INTRA.REPUL.0>
0

>  <SCORE.INTRA.VDW>
10.1556

>  <SCORE.INTRA.VDW.0>
0.0605502

>  <SCORE.INTRA.norm>
0.391603

>  <SCORE.RESTR>
0

>  <SCORE.RESTR.CAVITY>
0

>  <SCORE.RESTR.norm>
0

>  <SCORE.SYSTEM>
0

>  <SCORE.SYSTEM.CONST>
0

>  <SCORE.SYSTEM.DIHEDRAL>
0

>  <SCORE.SYSTEM.norm>
0

>  <SCORE.heavy>
32

>  <SCORE.norm>
0.500461

$$$$
FXR_1
  rDOCK(R)          3D
libRbt.so/2013.1/901 2013/11/27
 33 34  0  0  0  0  0  0  0  0999 V2000
   44.7689    6.0325    5.7455 C   0  0  0  0  0  0
   43.6494    6.7329    6.2863 O   0  0  0  0  0  0
   43.5737    8.0613    5.9605 C   0  0  0  0  0  0
   44.7218    8.7975    5.6302 C   0  0  0  0  0  0
   44.6491   10.1650    5.3722 C   0  0  0  0  0  0
   43.4172   10.8076    5.4104 C   0  0  0  0  0  0
   42.2603   10.0708    5.6417 C   0  0  0  0  0  0
   42.3213    8.6957    5.9178 C   0  0  0  0  0  0
   41.0793    8.1657    6.1410 O   0  0  0  0  0  0
   40.9689    6.8864    6.7435 C   0  0  0  0  0  0
   43.3338   12.2223    5.2217 N   0  0  0  0  0  0
   44.1250   12.8700    4.1537 C   0  0  0  0  0  0
   43.7640   12.5049    2.7152 C   0  0  0  0  0  0
   44.5590   12.7106    1.7986 O   0  0  0  0  0  0
   42.4873   12.0238    2.4925 N   0  0  0  0  0  0
   41.9704   11.5775    1.1770 C   0  0  0  0  0  0
   40.7086   10.6463    1.3315 C   0  0  0  0  0  0
   41.0409    9.2914    1.9790 C   0  0  0  0  0  0
   39.5781   11.2749    2.1561 C   0  0  0  0  0  0
   41.6808   12.8077    0.2424 C   0  0  0  0  0  0
   41.3365   14.0865    1.0079 C   0  0  0  0  0  0
   42.8236   13.1027   -0.7378 C   0  0  0  0  0  0
   41.9569   13.0014    5.8465 S   0  0  0  0  0  0
   41.8003   14.2971    5.2065 O   0  0  0  0  0  0
   40.8435   12.0717    5.9104 O   0  0  0  0  0  0
   42.4916   13.3085    7.5117 C   0  0  0  0  0  0
   42.9277   12.2379    8.2909 C   0  0  0  0  0  0
   43.2170   12.4472    9.6374 C   0  0  0  0  0  0
   43.0755   13.7229   10.2002 C   0  0  0  0  0  0
   43.2817   13.9361   11.6698 C   0  0  0  0  0  0
   42.7145   14.8043    9.3833 C   0  0  0  0  0  0
   42.4279   14.6035    8.0341 C   0  0  0  0  0  0
   41.8140   12.1872    3.2291 H   0  0  0  0  0  0
  1  2  1  0  0  0
  2  3  1  0  0  0
  3  8  2  0  0  0
  3  4  1  0  0  0
  4  5  2  0  0  0
  5  6  1  0  0  0
  6  7  2  0  0  0
  6 11  1  0  0  0
  7  8  1  0  0  0
  8  9  1  0  0  0
  9 10  1  0  0  0
 11 12  1  0  0  0
 11 23  1  0  0  0
 12 13  1  0  0  0
 13 14  2  0  0  0
 13 15  1  0  0  0
 15 16  1  0  0  0
 15 33  1  0  0  0
 16 17  1  0  0  0
 16 20  1  0  0  0
 17 18  1  0  0  0
 17 19  1  0  0  0
 20 21  1  0  0  0
 20 22  1  0  0  0
 23 24  2  0  0  0
 23 25  2  0  0  0
 23 26  1  0  0  0
 26 32  2  0  0  0
 26 27  1  0  0  0
 27 28  2  0  0  0
 28 29  1  0  0  0
 29 30  1  0  0  0
 29 31  2  0  0  0
 31 32  1  0  0  0
M  END
>  <CHROM.1>
-25.50938420,43.46845813,13.64856233,65.45413448,-161.10795034,-161.26091730
160.23966494,-67.48960721,-27.64006383,-55.50531239,42.55375392,11.41114898
5.09636140,-0.58766575,1.42613515,-2.60481541

>  <Name>
FXR_1

>  <RI>
1.65995e+07

>  <Rbt.Current_Directory>
/home/nvk/Dropbox/D3_challenge/ivan/test-docking/src/rdock

>  <Rbt.Executable>
rbdock ($Id: //depot/dev/client3/rdock/2013.1/src/exe/rbdock.cxx#4 $)

>  <Rbt.Library>
libRbt.so (2013.1, Build901 2013/11/27)

>  <Rbt.Parameter_File>
/home/nvk/Dropbox/D3_challenge/ivan/test-docking/rDock_2013.1_src/data/scripts/dock.prm

>  <Rbt.Receptor>
rdock_input.prm

>  <SCORE>
13.6385

>  <SCORE.INTER>
9.77416

>  <SCORE.INTER.CONST>
1

>  <SCORE.INTER.POLAR>
0

>  <SCORE.INTER.REPUL>
0.195304

>  <SCORE.INTER.ROT>
10

>  <SCORE.INTER.VDW>
-6.60236

>  <SCORE.INTER.norm>
0.305442

>  <SCORE.INTRA>
3.86438

>  <SCORE.INTRA.DIHEDRAL>
1.6565

>  <SCORE.INTRA.DIHEDRAL.0>
9.43705

>  <SCORE.INTRA.POLAR>
0

>  <SCORE.INTRA.POLAR.0>
0

>  <SCORE.INTRA.REPUL>
0.0261541

>  <SCORE.INTRA.REPUL.0>
0

>  <SCORE.INTRA.VDW>
2.90536

>  <SCORE.INTRA.VDW.0>
0.0605502

>  <SCORE.INTRA.norm>
0.120762

>  <SCORE.RESTR>
0

>  <SCORE.RESTR.CAVITY>
0

>  <SCORE.RESTR.norm>
0

>  <SCORE.SYSTEM>
0

>  <SCORE.SYSTEM.CONST>
0

>  <SCORE.SYSTEM.DIHEDRAL>
0

>  <SCORE.SYSTEM.norm>
0

>  <SCORE.heavy>
32

>  <SCORE.norm>
0.426204

$$$$
FXR_1
  rDOCK(R)          3D
libRbt.so/2013.1/901 2013/11/27
 33 34  0  0  0  0  0  0  0  0999 V2000
   42.2260   14.5240   -1.8245 C   0  0  0  0  0  0
   41.4567   13.4380   -1.3095 O   0  0  0  0  0  0
   41.6993   13.1142   -0.0008 C   0  0  0  0  0  0
   41.0444   13.7778    1.0479 C   0  0  0  0  0  0
   41.3494   13.4962    2.3782 C   0  0  0  0  0  0
   42.2937   12.5207    2.6757 C   0  0  0  0  0  0
   42.8791   11.7891    1.6476 C   0  0  0  0  0  0
   42.5918   12.0731    0.3031 C   0  0  0  0  0  0
   43.2887   11.2597   -0.5491 O   0  0  0  0  0  0
   43.6628   11.7508   -1.8260 C   0  0  0  0  0  0
   42.6726   12.2712    4.0315 N   0  0  0  0  0  0
   43.0478   13.3995    4.9102 C   0  0  0  0  0  0
   43.6530   13.0413    6.2660 C   0  0  0  0  0  0
   44.5898   12.2469    6.3433 O   0  0  0  0  0  0
   43.0447   13.5783    7.3852 N   0  0  0  0  0  0
   43.5130   13.3810    8.7776 C   0  0  0  0  0  0
   42.8799   14.4370    9.7610 C   0  0  0  0  0  0
   41.3476   14.3341    9.8435 C   0  0  0  0  0  0
   43.4160   14.3401   11.1951 C   0  0  0  0  0  0
   43.2510   11.9058    9.2529 C   0  0  0  0  0  0
   41.9486   11.3136    8.7115 C   0  0  0  0  0  0
   44.4083   10.9527    8.9274 C   0  0  0  0  0  0
   42.1605   10.7999    4.7145 S   0  0  0  0  0  0
   43.3096    9.9332    4.9174 O   0  0  0  0  0  0
   41.2266   11.0510    5.7975 O   0  0  0  0  0  0
   41.2352   10.1231    3.3585 C   0  0  0  0  0  0
   41.8555    9.2144    2.5024 C   0  0  0  0  0  0
   41.1839    8.7855    1.3599 C   0  0  0  0  0  0
   39.8956    9.2596    1.0780 C   0  0  0  0  0  0
   39.2078    8.8872   -0.2010 C   0  0  0  0  0  0
   39.2550   10.1095    1.9915 C   0  0  0  0  0  0
   39.9189   10.5393    3.1393 C   0  0  0  0  0  0
   42.1129   13.9479    7.2526 H   0  0  0  0  0  0
  1  2  1  0  0  0
  2  3  1  0  0  0
  3  8  2  0  0  0
  3  4  1  0  0  0
  4  5  2  0  0  0
  5  6  1  0  0  0
  6  7  2  0  0  0
  6 11  1  0  0  0
  7  8  1  0  0  0
  8  9  1  0  0  0
  9 10  1  0  0  0
 11 12  1  0  0  0
 11 23  1  0  0  0
 12 13  1  0  0  0
 13 14  2  0  0  0
 13 15  1  0  0  0
 15 16  1  0  0  0
 15 33  1  0  0  0
 16 17  1  0  0  0
 16 20  1  0  0  0
 17 18  1  0  0  0
 17 19  1  0  0  0
 20 21  1  0  0  0
 20 22  1  0  0  0
 23 24  2  0  0  0
 23 25  2  0  0  0
 23 26  1  0  0  0
 26 32  2  0  0  0
 26 27  1  0  0  0
 27 28  2  0  0  0
 28 29  1  0  0  0
 29 30  1  0  0  0
 29 31  2  0  0  0
 31 32  1  0  0  0
M  END
>  <CHROM.1>
85.42365462,-49.34395933,29.22441536,-170.45365711,110.54336736,50.36691488
163.36502200,62.17545877,-36.17548626,96.39976692,42.20393161,11.89554211
4.02783448,-1.97404868,1.15461329,1.79156128

>  <Name>
FXR_1

>  <RI>
1.65995e+07

>  <Rbt.Current_Directory>
/home/nvk/Dropbox/D3_challenge/ivan/test-docking/src/rdock

>  <Rbt.Executable>
rbdock ($Id: //depot/dev/client3/rdock/2013.1/src/exe/rbdock.cxx#4 $)

>  <Rbt.Library>
libRbt.so (2013.1, Build901 2013/11/27)

>  <Rbt.Parameter_File>
/home/nvk/Dropbox/D3_challenge/ivan/test-docking/rDock_2013.1_src/data/scripts/dock.prm

>  <Rbt.Receptor>
rdock_input.prm

>  <SCORE>
60.3425

>  <SCORE.INTER>
58.5837

>  <SCORE.INTER.CONST>
1

>  <SCORE.INTER.POLAR>
0

>  <SCORE.INTER.REPUL>
0

>  <SCORE.INTER.ROT>
10

>  <SCORE.INTER.VDW>
43.1837

>  <SCORE.INTER.norm>
1.83074

>  <SCORE.INTRA>
1.4936

>  <SCORE.INTRA.DIHEDRAL>
4.7967

>  <SCORE.INTRA.DIHEDRAL.0>
9.43705

>  <SCORE.INTRA.POLAR>
0

>  <SCORE.INTRA.POLAR.0>
0

>  <SCORE.INTRA.REPUL>
0

>  <SCORE.INTRA.REPUL.0>
0

>  <SCORE.INTRA.VDW>
-0.904748

>  <SCORE.INTRA.VDW.0>
0.0605502

>  <SCORE.INTRA.norm>
0.0466751

>  <SCORE.RESTR>
0.26523

>  <SCORE.RESTR.CAVITY>
0.26523

>  <SCORE.RESTR.norm>
0.00828844

>  <SCORE.SYSTEM>
0

>  <SCORE.SYSTEM.CONST>
0

>  <SCORE.SYSTEM.DIHEDRAL>
0

>  <SCORE.SYSTEM.norm>
0

>  <SCORE.heavy>
32

>  <SCORE.norm>
1.8857

$$$$
FXR_1
  rDOCK(R)          3D
libRbt.so/2013.1/901 2013/11/27
 33 34  0  0  0  0  0  0  0  0999 V2000
   44.6207    6.4376    5.6486 C   0  0  0  0  0  0
   43.5455    6.8812    6.4753 O   0  0  0  0  0  0
   42.8828    7.9946    6.0308 C   0  0  0  0  0  0
   42.0832    7.9554    4.8784 C   0  0  0  0  0  0
   41.4713    9.1078    4.3887 C   0  0  0  0  0  0
   41.6270   10.3106    5.0675 C   0  0  0  0  0  0
   42.3373   10.3426    6.2630 C   0  0  0  0  0  0
   42.9710    9.1923    6.7591 C   0  0  0  0  0  0
   43.6357    9.4419    7.9293 O   0  0  0  0  0  0
   45.0538    9.4651    7.9302 C   0  0  0  0  0  0
   41.0685   11.5161    4.5394 N   0  0  0  0  0  0
   41.5923   12.8257    4.9828 C   0  0  0  0  0  0
   41.4866   13.1373    6.4744 C   0  0  0  0  0  0
   40.3863   13.2464    7.0148 O   0  0  0  0  0  0
   42.6690   13.3739    7.1503 N   0  0  0  0  0  0
   42.7710   13.6480    8.6033 C   0  0  0  0  0  0
   41.7491   12.7820    9.4333 C   0  0  0  0  0  0
   42.0256   11.2723    9.3342 C   0  0  0  0  0  0
   41.7126   13.1366   10.9254 C   0  0  0  0  0  0
   44.2474   13.4562    9.1073 C   0  0  0  0  0  0
   45.0932   12.5695    8.1917 C   0  0  0  0  0  0
   44.9827   14.7826    9.3390 C   0  0  0  0  0  0
   40.2338   11.3941    3.0623 S   0  0  0  0  0  0
   39.6555   10.0661    2.9401 O   0  0  0  0  0  0
   39.4169   12.5758    2.8517 O   0  0  0  0  0  0
   41.5915   11.4739    1.9206 C   0  0  0  0  0  0
   41.8610   12.6783    1.2726 C   0  0  0  0  0  0
   42.8334   12.7142    0.2757 C   0  0  0  0  0  0
   43.5363   11.5514   -0.0675 C   0  0  0  0  0  0
   44.5077   11.5553   -1.2094 C   0  0  0  0  0  0
   43.3099   10.3678    0.6503 C   0  0  0  0  0  0
   42.3418   10.3255    1.6522 C   0  0  0  0  0  0
   43.4775   13.5768    6.5778 H   0  0  0  0  0  0
  1  2  1  0  0  0
  2  3  1  0  0  0
  3  8  2  0  0  0
  3  4  1  0  0  0
  4  5  2  0  0  0
  5  6  1  0  0  0
  6  7  2  0  0  0
  6 11  1  0  0  0
  7  8  1  0  0  0
  8  9  1  0  0  0
  9 10  1  0  0  0
 11 12  1  0  0  0
 11 23  1  0  0  0
 12 13  1  0  0  0
 13 14  2  0  0  0
 13 15  1  0  0  0
 15 16  1  0  0  0
 15 33  1  0  0  0
 16 17  1  0  0  0
 16 20  1  0  0  0
 17 18  1  0  0  0
 17 19  1  0  0  0
 20 21  1  0  0  0
 20 22  1  0  0  0
 23 24  2  0  0  0
 23 25  2  0  0  0
 23 26  1  0  0  0
 26 32  2  0  0  0
 26 27  1  0  0  0
 27 28  2  0  0  0
 28 29  1  0  0  0
 29 30  1  0  0  0
 29 31  2  0  0  0
 31 32  1  0  0  0
M  END
>  <CHROM.1>
68.87577749,-159.52860540,70.10367320,-60.20435716,29.10714007,-64.18043499
37.93154164,63.91823470,-21.42930726,-100.68421422,42.39445760,11.18576610
5.29210121,-1.97047854,-1.21359941,1.05111762

>  <Name>
FXR_1

>  <RI>
1.65995e+07

>  <Rbt.Current_Directory>
/home/nvk/Dropbox/D3_challenge/ivan/test-docking/src/rdock

>  <Rbt.Executable>
rbdock ($Id: //depot/dev/client3/rdock/2013.1/src/exe/rbdock.cxx#4 $)

>  <Rbt.Library>
libRbt.so (2013.1, Build901 2013/11/27)

>  <Rbt.Parameter_File>
/home/nvk/Dropbox/D3_challenge/ivan/test-docking/rDock_2013.1_src/data/scripts/dock.prm

>  <Rbt.Receptor>
rdock_input.prm

>  <SCORE>
69.1837

>  <SCORE.INTER>
61.9587

>  <SCORE.INTER.CONST>
1

>  <SCORE.INTER.POLAR>
0

>  <SCORE.INTER.REPUL>
0.403818

>  <SCORE.INTER.ROT>
10

>  <SCORE.INTER.VDW>
44.5396

>  <SCORE.INTER.norm>
1.93621

>  <SCORE.INTRA>
7.20578

>  <SCORE.INTRA.DIHEDRAL>
8.75695

>  <SCORE.INTRA.DIHEDRAL.0>
9.43705

>  <SCORE.INTRA.POLAR>
0

>  <SCORE.INTRA.POLAR.0>
0

>  <SCORE.INTRA.REPUL>
0

>  <SCORE.INTRA.REPUL.0>
0

>  <SCORE.INTRA.VDW>
2.8273

>  <SCORE.INTRA.VDW.0>
0.0605502

>  <SCORE.INTRA.norm>
0.22518

>  <SCORE.RESTR>
0.0192616

>  <SCORE.RESTR.CAVITY>
0.0192616

>  <SCORE.RESTR.norm>
0.000601925

>  <SCORE.SYSTEM>
0

>  <SCORE.SYSTEM.CONST>
0

>  <SCORE.SYSTEM.DIHEDRAL>
0

>  <SCORE.SYSTEM.norm>
0

>  <SCORE.heavy>
32

>  <SCORE.norm>
2.16199

$$$$
FXR_1
  rDOCK(R)          3D
libRbt.so/2013.1/901 2013/11/27
 33 34  0  0  0  0  0  0  0  0999 V2000
   41.0784    5.2504    7.2711 C   0  0  0  0  0  0
   41.0594    6.1598    6.1715 O   0  0  0  0  0  0
   41.7921    7.3045    6.3426 C   0  0  0  0  0  0
   41.1990    8.4862    6.8127 C   0  0  0  0  0  0
   41.9320    9.6671    6.9143 C   0  0  0  0  0  0
   43.2799    9.6712    6.5757 C   0  0  0  0  0  0
   43.9019    8.4849    6.2006 C   0  0  0  0  0  0
   43.1718    7.2919    6.0798 C   0  0  0  0  0  0
   43.9621    6.2501    5.6756 O   0  0  0  0  0  0
   43.3553    5.0902    5.1296 C   0  0  0  0  0  0
   44.0283   10.8891    6.6029 N   0  0  0  0  0  0
   43.6748   11.9905    5.6820 C   0  0  0  0  0  0
   43.5847   11.6415    4.1978 C   0  0  0  0  0  0
   44.2025   10.6796    3.7421 O   0  0  0  0  0  0
   42.8578   12.5008    3.3951 N   0  0  0  0  0  0
   42.6220   12.3055    1.9450 C   0  0  0  0  0  0
   41.2179   11.6469    1.6658 C   0  0  0  0  0  0
   41.2152   10.1256    1.8922 C   0  0  0  0  0  0
   40.0844   12.2315    2.5182 C   0  0  0  0  0  0
   42.8028   13.6559    1.1611 C   0  0  0  0  0  0
   43.0032   13.4649   -0.3433 C   0  0  0  0  0  0
   41.6536   14.6457    1.3919 C   0  0  0  0  0  0
   44.9069   11.2201    8.0213 S   0  0  0  0  0  0
   44.8165   10.0845    8.9241 O   0  0  0  0  0  0
   46.1977   11.7942    7.6861 O   0  0  0  0  0  0
   43.9120   12.5153    8.7184 C   0  0  0  0  0  0
   42.5825   12.2482    9.0414 C   0  0  0  0  0  0
   41.7587   13.2914    9.4581 C   0  0  0  0  0  0
   42.2642   14.5947    9.5560 C   0  0  0  0  0  0
   41.3606   15.7404    9.9005 C   0  0  0  0  0  0
   43.6239   14.8309    9.3057 C   0  0  0  0  0  0
   44.4555   13.7913    8.8928 C   0  0  0  0  0  0
   42.6600   13.4136    3.7828 H   0  0  0  0  0  0
  1  2  1  0  0  0
  2  3  1  0  0  0
  3  8  2  0  0  0
  3  4  1  0  0  0
  4  5  2  0  0  0
  5  6  1  0  0  0
  6  7  2  0  0  0
  6 11  1  0  0  0
  7  8  1  0  0  0
  8  9  1  0  0  0
  9 10  1  0  0  0
 11 12  1  0  0  0
 11 23  1  0  0  0
 12 13  1  0  0  0
 13 14  2  0  0  0
 13 15  1  0  0  0
 15 16  1  0  0  0
 15 33  1  0  0  0
 16 17  1  0  0  0
 16 20  1  0  0  0
 17 18  1  0  0  0
 17 19  1  0  0  0
 20 21  1  0  0  0
 20 22  1  0  0  0
 23 24  2  0  0  0
 23 25  2  0  0  0
 23 26  1  0  0  0
 26 32  2  0  0  0
 26 27  1  0  0  0
 27 28  2  0  0  0
 28 29  1  0  0  0
 29 30  1  0  0  0
 29 31  2  0  0  0
 31 32  1  0  0  0
M  END
>  <CHROM.1>
-94.54047928,-63.87227805,16.86514970,-52.90412092,5.42058698,-24.46234851
97.57295784,-79.40925344,162.18657419,60.45953838,42.94951755,10.89023343
5.85961669,0.43601761,1.37270474,2.94382979

>  <Name>
FXR_1

>  <RI>
1.65995e+07

>  <Rbt.Current_Directory>
/home/nvk/Dropbox/D3_challenge/ivan/test-docking/src/rdock

>  <Rbt.Executable>
rbdock ($Id: //depot/dev/client3/rdock/2013.1/src/exe/rbdock.cxx#4 $)

>  <Rbt.Library>
libRbt.so (2013.1, Build901 2013/11/27)

>  <Rbt.Parameter_File>
/home/nvk/Dropbox/D3_challenge/ivan/test-docking/rDock_2013.1_src/data/scripts/dock.prm

>  <Rbt.Receptor>
rdock_input.prm

>  <SCORE>
28.9839

>  <SCORE.INTER>
25.9574

>  <SCORE.INTER.CONST>
1

>  <SCORE.INTER.POLAR>
0

>  <SCORE.INTER.REPUL>
0

>  <SCORE.INTER.ROT>
10

>  <SCORE.INTER.VDW>
10.5574

>  <SCORE.INTER.norm>
0.811168

>  <SCORE.INTRA>
2.43716

>  <SCORE.INTRA.DIHEDRAL>
4.88308

>  <SCORE.INTRA.DIHEDRAL.0>
9.43705

>  <SCORE.INTRA.POLAR>
0

>  <SCORE.INTRA.POLAR.0>
0

>  <SCORE.INTRA.REPUL>
0

>  <SCORE.INTRA.REPUL.0>
0

>  <SCORE.INTRA.VDW>
-0.00438288

>  <SCORE.INTRA.VDW.0>
0.0605502

>  <SCORE.INTRA.norm>
0.0761612

>  <SCORE.RESTR>
0.589396

>  <SCORE.RESTR.CAVITY>
0.589396

>  <SCORE.RESTR.norm>
0.0184186

>  <SCORE.SYSTEM>
0

>  <SCORE.SYSTEM.CONST>
0

>  <SCORE.SYSTEM.DIHEDRAL>
0

>  <SCORE.SYSTEM.norm>
0

>  <SCORE.heavy>
32

>  <SCORE.norm>
0.905748

$$$$
FXR_1
  rDOCK(R)          3D
libRbt.so/2013.1/901 2013/11/27
 33 34  0  0  0  0  0  0  0  0999 V2000
   41.9671   12.2151   10.0774 C   0  0  0  0  0  0
   41.4028   13.3349    9.3963 O   0  0  0  0  0  0
   41.5444   13.3267    8.0338 C   0  0  0  0  0  0
   40.6235   12.6627    7.2091 C   0  0  0  0  0  0
   40.8126   12.5944    5.8301 C   0  0  0  0  0  0
   41.9125   13.2197    5.2549 C   0  0  0  0  0  0
   42.7796   13.9619    6.0500 C   0  0  0  0  0  0
   42.6090   14.0262    7.4419 C   0  0  0  0  0  0
   43.5801   14.7834    8.0394 O   0  0  0  0  0  0
   44.0826   14.3927    9.3068 C   0  0  0  0  0  0
   42.1620   13.0972    3.8525 N   0  0  0  0  0  0
   43.2845   12.2615    3.3751 C   0  0  0  0  0  0
   43.9723   11.3782    4.4142 C   0  0  0  0  0  0
   45.1670   11.1024    4.3093 O   0  0  0  0  0  0
   43.1745   10.8435    5.4086 N   0  0  0  0  0  0
   43.6667   10.0021    6.5251 C   0  0  0  0  0  0
   43.9830   10.8614    7.8076 C   0  0  0  0  0  0
   44.4276   10.0060    9.0060 C   0  0  0  0  0  0
   45.0678   11.9228    7.5842 C   0  0  0  0  0  0
   42.6590    8.8360    6.8341 C   0  0  0  0  0  0
   41.2203    9.3129    7.0403 C   0  0  0  0  0  0
   42.6727    7.7296    5.7714 C   0  0  0  0  0  0
   40.8687   13.4554    2.8073 S   0  0  0  0  0  0
   39.8399   12.4374    2.9421 O   0  0  0  0  0  0
   40.5283   14.8638    2.8992 O   0  0  0  0  0  0
   41.6489   13.1968    1.2333 C   0  0  0  0  0  0
   41.7279   14.2593    0.3343 C   0  0  0  0  0  0
   42.2124   14.0306   -0.9516 C   0  0  0  0  0  0
   42.6207   12.7458   -1.3344 C   0  0  0  0  0  0
   43.0429   12.4677   -2.7458 C   0  0  0  0  0  0
   42.6109   11.7065   -0.3926 C   0  0  0  0  0  0
   42.1319   11.9288    0.8973 C   0  0  0  0  0  0
   42.1780   10.8584    5.2376 H   0  0  0  0  0  0
  1  2  1  0  0  0
  2  3  1  0  0  0
  3  8  2  0  0  0
  3  4  1  0  0  0
  4  5  2  0  0  0
  5  6  1  0  0  0
  6  7  2  0  0  0
  6 11  1  0  0  0
  7  8  1  0  0  0
  8  9  1  0  0  0
  9 10  1  0  0  0
 11 12  1  0  0  0
 11 23  1  0  0  0
 12 13  1  0  0  0
 13 14  2  0  0  0
 13 15  1  0  0  0
 15 16  1  0  0  0
 15 33  1  0  0  0
 16 17  1  0  0  0
 16 20  1  0  0  0
 17 18  1  0  0  0
 17 19  1  0  0  0
 20 21  1  0  0  0
 20 22  1  0  0  0
 23 24  2  0  0  0
 23 25  2  0  0  0
 23 26  1  0  0  0
 26 32  2  0  0  0
 26 27  1  0  0  0
 27 28  2  0  0  0
 28 29  1  0  0  0
 29 30  1  0  0  0
 29 31  2  0  0  0
 31 32  1  0  0  0
M  END
>  <CHROM.1>
85.96098263,-107.78123611,35.33783235,10.25633008,-68.71035450,-149.48998052
93.58774977,177.06606581,-51.83123686,-119.71612385,42.44514483,12.31335510
4.81911180,1.28344650,-1.17386089,1.43591558

>  <Name>
FXR_1

>  <RI>
1.65995e+07

>  <Rbt.Current_Directory>
/home/nvk/Dropbox/D3_challenge/ivan/test-docking/src/rdock

>  <Rbt.Executable>
rbdock ($Id: //depot/dev/client3/rdock/2013.1/src/exe/rbdock.cxx#4 $)

>  <Rbt.Library>
libRbt.so (2013.1, Build901 2013/11/27)

>  <Rbt.Parameter_File>
/home/nvk/Dropbox/D3_challenge/ivan/test-docking/rDock_2013.1_src/data/scripts/dock.prm

>  <Rbt.Receptor>
rdock_input.prm

>  <SCORE>
8.42357

>  <SCORE.INTER>
4.78395

>  <SCORE.INTER.CONST>
1

>  <SCORE.INTER.POLAR>
0

>  <SCORE.INTER.REPUL>
0.185116

>  <SCORE.INTER.ROT>
10

>  <SCORE.INTER.VDW>
-11.5416

>  <SCORE.INTER.norm>
0.149498

>  <SCORE.INTRA>
3.63963

>  <SCORE.INTRA.DIHEDRAL>
4.78221

>  <SCORE.INTRA.DIHEDRAL.0>
9.43705

>  <SCORE.INTRA.POLAR>
0

>  <SCORE.INTRA.POLAR.0>
0

>  <SCORE.INTRA.REPUL>
0

>  <SCORE.INTRA.REPUL.0>
0

>  <SCORE.INTRA.VDW>
1.24852

>  <SCORE.INTRA.VDW.0>
0.0605502

>  <SCORE.INTRA.norm>
0.113738

>  <SCORE.RESTR>
0

>  <SCORE.RESTR.CAVITY>
0

>  <SCORE.RESTR.norm>
0

>  <SCORE.SYSTEM>
0

>  <SCORE.SYSTEM.CONST>
0

>  <SCORE.SYSTEM.DIHEDRAL>
0

>  <SCORE.SYSTEM.norm>
0

>  <SCORE.heavy>
32

>  <SCORE.norm>
0.263237

$$$$
FXR_1
  rDOCK(R)          3D
libRbt.so/2013.1/901 2013/11/27
 33 34  0  0  0  0  0  0  0  0999 V2000
   41.6456    6.2533    6.3160 C   0  0  0  0  0  0
   41.8156    7.5171    6.9566 O   0  0  0  0  0  0
   42.0179    8.5797    6.1161 C   0  0  0  0  0  0
   41.0432    8.9680    5.1843 C   0  0  0  0  0  0
   41.2835   10.0021    4.2815 C   0  0  0  0  0  0
   42.4943   10.6833    4.3225 C   0  0  0  0  0  0
   43.4297   10.3718    5.3037 C   0  0  0  0  0  0
   43.2063    9.3226    6.2093 C   0  0  0  0  0  0
   44.2559    9.1636    7.0733 O   0  0  0  0  0  0
   44.1646    9.7019    8.3823 C   0  0  0  0  0  0
   42.7868   11.6961    3.3567 N   0  0  0  0  0  0
   42.1557   13.0281    3.4733 C   0  0  0  0  0  0
   42.0794   13.6307    4.8747 C   0  0  0  0  0  0
   41.3146   14.5648    5.1139 O   0  0  0  0  0  0
   42.9632   13.1389    5.8171 N   0  0  0  0  0  0
   43.0098   13.5665    7.2355 C   0  0  0  0  0  0
   41.5691   13.6428    7.8693 C   0  0  0  0  0  0
   40.9041   15.0166    7.6794 C   0  0  0  0  0  0
   40.5980   12.5917    7.3168 C   0  0  0  0  0  0
   43.9688   12.6407    8.0684 C   0  0  0  0  0  0
   45.4515   12.8845    7.7815 C   0  0  0  0  0  0
   43.7298   12.7301    9.5812 C   0  0  0  0  0  0
   44.2229   11.5148    2.4633 S   0  0  0  0  0  0
   45.2419   12.4033    2.9973 O   0  0  0  0  0  0
   44.5079   10.1061    2.2575 O   0  0  0  0  0  0
   43.7150   12.1899    0.9015 C   0  0  0  0  0  0
   43.6276   13.5738    0.7586 C   0  0  0  0  0  0
   43.0992   14.1066   -0.4151 C   0  0  0  0  0  0
   42.6650   13.2586   -1.4429 C   0  0  0  0  0  0
   41.9982   13.8178   -2.6637 C   0  0  0  0  0  0
   42.8356   11.8723   -1.3156 C   0  0  0  0  0  0
   43.3678   11.3321   -0.1461 C   0  0  0  0  0  0
   43.7514   12.6159    5.4597 H   0  0  0  0  0  0
  1  2  1  0  0  0
  2  3  1  0  0  0
  3  8  2  0  0  0
  3  4  1  0  0  0
  4  5  2  0  0  0
  5  6  1  0  0  0
  6  7  2  0  0  0
  6 11  1  0  0  0
  7  8  1  0  0  0
  8  9  1  0  0  0
  9 10  1  0  0  0
 11 12  1  0  0  0
 11 23  1  0  0  0
 12 13  1  0  0  0
 13 14  2  0  0  0
 13 15  1  0  0  0
 15 16  1  0  0  0
 15 33  1  0  0  0
 16 17  1  0  0  0
 16 20  1  0  0  0
 17 18  1  0  0  0
 17 19  1  0  0  0
 20 21  1  0  0  0
 20 22  1  0  0  0
 23 24  2  0  0  0
 23 25  2  0  0  0
 23 26  1  0  0  0
 26 32  2  0  0  0
 26 27  1  0  0  0
 27 28  2  0  0  0
 28 29  1  0  0  0
 29 30  1  0  0  0
 29 31  2  0  0  0
 31 32  1  0  0  0
M  END
>  <CHROM.1>
62.29561954,76.11509898,-81.48882622,42.22113866,-102.18473863,-163.06534578
45.14589109,-88.79416011,73.39710985,77.08055659,42.92043771,11.66514684
4.43343086,-2.25941623,1.50880623,-0.65397528

>  <Name>
FXR_1

>  <RI>
1.65995e+07

>  <Rbt.Current_Directory>
/home/nvk/Dropbox/D3_challenge/ivan/test-docking/src/rdock

>  <Rbt.Executable>
rbdock ($Id: //depot/dev/client3/rdock/2013.1/src/exe/rbdock.cxx#4 $)

>  <Rbt.Library>
libRbt.so (2013.1, Build901 2013/11/27)

>  <Rbt.Parameter_File>
/home/nvk/Dropbox/D3_challenge/ivan/test-docking/rDock_2013.1_src/data/scripts/dock.prm

>  <Rbt.Receptor>
rdock_input.prm

>  <SCORE>
35.582

>  <SCORE.INTER>
29.2035

>  <SCORE.INTER.CONST>
1

>  <SCORE.INTER.POLAR>
0

>  <SCORE.INTER.REPUL>
0.131591

>  <SCORE.INTER.ROT>
10

>  <SCORE.INTER.VDW>
13.1456

>  <SCORE.INTER.norm>
0.91261

>  <SCORE.INTRA>
6.32619

>  <SCORE.INTRA.DIHEDRAL>
8.65231

>  <SCORE.INTRA.DIHEDRAL.0>
9.43705

>  <SCORE.INTRA.POLAR>
0

>  <SCORE.INTRA.POLAR.0>
0

>  <SCORE.INTRA.REPUL>
0

>  <SCORE.INTRA.REPUL.0>
0

>  <SCORE.INTRA.VDW>
2.00004

>  <SCORE.INTRA.VDW.0>
0.0605502

>  <SCORE.INTRA.norm>
0.197693

>  <SCORE.RESTR>
0.0522729

>  <SCORE.RESTR.CAVITY>
0.0522729

>  <SCORE.RESTR.norm>
0.00163353

>  <SCORE.SYSTEM>
0

>  <SCORE.SYSTEM.CONST>
0

>  <SCORE.SYSTEM.DIHEDRAL>
0

>  <SCORE.SYSTEM.norm>
0

>  <SCORE.heavy>
32

>  <SCORE.norm>
1.11194

$$$$
FXR_1
  rDOCK(R)          3D
libRbt.so/2013.1/901 2013/11/27
 33 34  0  0  0  0  0  0  0  0999 V2000
   42.2237   13.4287   10.6267 C   0  0  0  0  0  0
   41.8257   13.7339    9.2907 O   0  0  0  0  0  0
   42.2116   12.8260    8.3404 C   0  0  0  0  0  0
   41.2693   12.1699    7.5338 C   0  0  0  0  0  0
   41.6611   11.1931    6.6203 C   0  0  0  0  0  0
   43.0088   10.8834    6.4802 C   0  0  0  0  0  0
   43.9602   11.5943    7.2044 C   0  0  0  0  0  0
   43.5779   12.5700    8.1386 C   0  0  0  0  0  0
   44.6604   13.1312    8.7604 O   0  0  0  0  0  0
   44.7516   14.5435    8.8538 C   0  0  0  0  0  0
   43.4216    9.8330    5.6026 N   0  0  0  0  0  0
   43.5888   10.1037    4.1587 C   0  0  0  0  0  0
   42.4632   10.8732    3.4703 C   0  0  0  0  0  0
   41.3033   10.4651    3.5213 O   0  0  0  0  0  0
   42.8251   11.9811    2.7269 N   0  0  0  0  0  0
   41.8735   12.8754    2.0259 C   0  0  0  0  0  0
   41.5213   14.1449    2.8904 C   0  0  0  0  0  0
   40.6711   13.8091    4.1274 C   0  0  0  0  0  0
   42.7536   14.9128    3.3853 C   0  0  0  0  0  0
   42.4162   13.2664    0.6035 C   0  0  0  0  0  0
   42.8278   12.0612   -0.2438 C   0  0  0  0  0  0
   41.4363   14.1320   -0.1990 C   0  0  0  0  0  0
   44.2120    8.5044    6.3121 S   0  0  0  0  0  0
   45.3104    8.0812    5.4593 O   0  0  0  0  0  0
   44.4296    8.7504    7.7264 O   0  0  0  0  0  0
   42.9447    7.2681    6.1747 C   0  0  0  0  0  0
   41.6534    7.5721    6.6027 C   0  0  0  0  0  0
   40.6884    6.5676    6.6271 C   0  0  0  0  0  0
   41.0130    5.2664    6.2204 C   0  0  0  0  0  0
   40.0129    4.1562    6.3432 C   0  0  0  0  0  0
   42.2938    4.9975    5.7161 C   0  0  0  0  0  0
   43.2632    5.9985    5.6842 C   0  0  0  0  0  0
   43.8033   12.0536    2.4812 H   0  0  0  0  0  0
  1  2  1  0  0  0
  2  3  1  0  0  0
  3  8  2  0  0  0
  3  4  1  0  0  0
  4  5  2  0  0  0
  5  6  1  0  0  0
  6  7  2  0  0  0
  6 11  1  0  0  0
  7  8  1  0  0  0
  8  9  1  0  0  0
  9 10  1  0  0  0
 11 12  1  0  0  0
 11 23  1  0  0  0
 12 13  1  0  0  0
 13 14  2  0  0  0
 13 15  1  0  0  0
 15 16  1  0  0  0
 15 33  1  0  0  0
 16 17  1  0  0  0
 16 20  1  0  0  0
 17 18  1  0  0  0
 17 19  1  0  0  0
 20 21  1  0  0  0
 20 22  1  0  0  0
 23 24  2  0  0  0
 23 25  2  0  0  0
 23 26  1  0  0  0
 26 32  2  0  0  0
 26 27  1  0  0  0
 27 28  2  0  0  0
 28 29  1  0  0  0
 29 30  1  0  0  0
 29 31  2  0  0  0
 31 32  1  0  0  0
M  END
>  <CHROM.1>
121.43159873,83.53049646,-49.95550671,-46.88364174,-139.70725958,-55.44522131
96.10666170,-69.39757417,51.96796184,-49.36301006,42.65632453,10.65931973
5.54996834,-1.66420708,1.40363936,2.79307154

>  <Name>
FXR_1

>  <RI>
1.65995e+07

>  <Rbt.Current_Directory>
/home/nvk/Dropbox/D3_challenge/ivan/test-docking/src/rdock

>  <Rbt.Executable>
rbdock ($Id: //depot/dev/client3/rdock/2013.1/src/exe/rbdock.cxx#4 $)

>  <Rbt.Library>
libRbt.so (2013.1, Build901 2013/11/27)

>  <Rbt.Parameter_File>
/home/nvk/Dropbox/D3_challenge/ivan/test-docking/rDock_2013.1_src/data/scripts/dock.prm

>  <Rbt.Receptor>
rdock_input.prm

>  <SCORE>
-6.36527

>  <SCORE.INTER>
-4.96122

>  <SCORE.INTER.CONST>
1

>  <SCORE.INTER.POLAR>
0

>  <SCORE.INTER.REPUL>
0

>  <SCORE.INTER.ROT>
10

>  <SCORE.INTER.VDW>
-20.3612

>  <SCORE.INTER.norm>
-0.155038

>  <SCORE.INTRA>
-1.4214

>  <SCORE.INTRA.DIHEDRAL>
4.63877

>  <SCORE.INTRA.DIHEDRAL.0>
9.43705

>  <SCORE.INTRA.POLAR>
0

>  <SCORE.INTRA.POLAR.0>
0

>  <SCORE.INTRA.REPUL>
0

>  <SCORE.INTRA.REPUL.0>
0

>  <SCORE.INTRA.VDW>
-3.74078

>  <SCORE.INTRA.VDW.0>
0.0605502

>  <SCORE.INTRA.norm>
-0.0444186

>  <SCORE.RESTR>
0.017344

>  <SCORE.RESTR.CAVITY>
0.017344

>  <SCORE.RESTR.norm>
0.000542001

>  <SCORE.SYSTEM>
0

>  <SCORE.SYSTEM.CONST>
0

>  <SCORE.SYSTEM.DIHEDRAL>
0

>  <SCORE.SYSTEM.norm>
0

>  <SCORE.heavy>
32

>  <SCORE.norm>
-0.198915

$$$$
FXR_1
  rDOCK(R)          3D
libRbt.so/2013.1/901 2013/11/27
 33 34  0  0  0  0  0  0  0  0999 V2000
   43.0113   14.7640   10.6262 C   0  0  0  0  0  0
   42.8973   13.3937   11.0076 O   0  0  0  0  0  0
   42.7178   12.5094    9.9769 C   0  0  0  0  0  0
   41.6746   11.5711    9.9947 C   0  0  0  0  0  0
   41.5412   10.6254    8.9798 C   0  0  0  0  0  0
   42.4346   10.6285    7.9151 C   0  0  0  0  0  0
   43.4138   11.6134    7.8374 C   0  0  0  0  0  0
   43.5683   12.5624    8.8603 C   0  0  0  0  0  0
   44.6014   13.4230    8.6046 O   0  0  0  0  0  0
   45.7730   12.9323    7.9736 C   0  0  0  0  0  0
   42.3579    9.6203    6.9043 N   0  0  0  0  0  0
   41.2923    9.6837    5.8813 C   0  0  0  0  0  0
   41.6992   10.1851    4.4971 C   0  0  0  0  0  0
   42.0423    9.3928    3.6200 O   0  0  0  0  0  0
   41.7462   11.5547    4.3157 N   0  0  0  0  0  0
   42.0752   12.2264    3.0361 C   0  0  0  0  0  0
   41.1919   13.5112    2.8078 C   0  0  0  0  0  0
   41.5892   14.6808    3.7243 C   0  0  0  0  0  0
   41.2298   14.0350    1.3665 C   0  0  0  0  0  0
   43.6115   12.5479    2.9511 C   0  0  0  0  0  0
   44.5035   11.3573    3.3069 C   0  0  0  0  0  0
   44.0369   13.1024    1.5855 C   0  0  0  0  0  0
   43.7743    8.7298    6.5976 S   0  0  0  0  0  0
   44.4249    9.2484    5.4057 O   0  0  0  0  0  0
   44.5252    8.5478    7.8269 O   0  0  0  0  0  0
   43.0748    7.1569    6.1621 C   0  0  0  0  0  0
   41.7613    6.8740    6.5337 C   0  0  0  0  0  0
   41.2517    5.5955    6.3187 C   0  0  0  0  0  0
   42.0509    4.6062    5.7300 C   0  0  0  0  0  0
   41.5481    3.2006    5.5917 C   0  0  0  0  0  0
   43.3419    4.9309    5.2883 C   0  0  0  0  0  0
   43.8571    6.2093    5.4957 C   0  0  0  0  0  0
   41.7621   12.1160    5.1567 H   0  0  0  0  0  0
  1  2  1  0  0  0
  2  3  1  0  0  0
  3  8  2  0  0  0
  3  4  1  0  0  0
  4  5  2  0  0  0
  5  6  1  0  0  0
  6  7  2  0  0  0
  6 11  1  0  0  0
  7  8  1  0  0  0
  8  9  1  0  0  0
  9 10  1  0  0  0
 11 12  1  0  0  0
 11 23  1  0  0  0
 12 13  1  0  0  0
 13 14  2  0  0  0
 13 15  1  0  0  0
 15 16  1  0  0  0
 15 33  1  0  0  0
 16 17  1  0  0  0
 16 20  1  0  0  0
 17 18  1  0  0  0
 17 19  1  0  0  0
 20 21  1  0  0  0
 20 22  1  0  0  0
 23 24  2  0  0  0
 23 25  2  0  0  0
 23 26  1  0  0  0
 26 32  2  0  0  0
 26 27  1  0  0  0
 27 28  2  0  0  0
 28 29  1  0  0  0
 29 30  1  0  0  0
 29 31  2  0  0  0
 31 32  1  0  0  0
M  END
>  <CHROM.1>
-128.63782275,75.70922406,141.84156758,102.78094211,-100.50469279,92.69071353
141.43307243,72.56546205,48.67650492,-18.85740132,42.84454952,10.35655002
6.14575182,-1.05488094,1.44739239,2.75421308

>  <Name>
FXR_1

>  <RI>
1.65995e+07

>  <Rbt.Current_Directory>
/home/nvk/Dropbox/D3_challenge/ivan/test-docking/src/rdock

>  <Rbt.Executable>
rbdock ($Id: //depot/dev/client3/rdock/2013.1/src/exe/rbdock.cxx#4 $)

>  <Rbt.Library>
libRbt.so (2013.1, Build901 2013/11/27)

>  <Rbt.Parameter_File>
/home/nvk/Dropbox/D3_challenge/ivan/test-docking/rDock_2013.1_src/data/scripts/dock.prm

>  <Rbt.Receptor>
rdock_input.prm

>  <SCORE>
14.8015

>  <SCORE.INTER>
8.8098

>  <SCORE.INTER.CONST>
1

>  <SCORE.INTER.POLAR>
0

>  <SCORE.INTER.REPUL>
0.420608

>  <SCORE.INTER.ROT>
10

>  <SCORE.INTER.VDW>
-8.69323

>  <SCORE.INTER.norm>
0.275306

>  <SCORE.INTRA>
5.93434

>  <SCORE.INTRA.DIHEDRAL>
1.93672

>  <SCORE.INTRA.DIHEDRAL.0>
9.43705

>  <SCORE.INTRA.POLAR>
0

>  <SCORE.INTRA.POLAR.0>
0

>  <SCORE.INTRA.REPUL>
0

>  <SCORE.INTRA.REPUL.0>
0

>  <SCORE.INTRA.VDW>
4.96598

>  <SCORE.INTRA.VDW.0>
0.0605502

>  <SCORE.INTRA.norm>
0.185448

>  <SCORE.RESTR>
0.0573628

>  <SCORE.RESTR.CAVITY>
0.0573628

>  <SCORE.RESTR.norm>
0.00179259

>  <SCORE.SYSTEM>
0

>  <SCORE.SYSTEM.CONST>
0

>  <SCORE.SYSTEM.DIHEDRAL>
0

>  <SCORE.SYSTEM.norm>
0

>  <SCORE.heavy>
32

>  <SCORE.norm>
0.462547

$$$$
FXR_1
  rDOCK(R)          3D
libRbt.so/2013.1/901 2013/11/27
 33 34  0  0  0  0  0  0  0  0999 V2000
   41.6149   12.9893    0.8449 C   0  0  0  0  0  0
   40.5404   12.6717    1.7285 O   0  0  0  0  0  0
   40.8886   11.9590    2.8453 C   0  0  0  0  0  0
   40.8768   10.5558    2.8476 C   0  0  0  0  0  0
   41.1598    9.8366    4.0073 C   0  0  0  0  0  0
   41.4905   10.5156    5.1741 C   0  0  0  0  0  0
   41.5995   11.9023    5.1596 C   0  0  0  0  0  0
   41.3026   12.6393    4.0023 C   0  0  0  0  0  0
   41.4465   13.9852    4.2050 O   0  0  0  0  0  0
   42.4874   14.6799    3.5376 C   0  0  0  0  0  0
   41.7108    9.7974    6.3905 N   0  0  0  0  0  0
   42.7645    8.7621    6.4532 C   0  0  0  0  0  0
   42.4693    7.4394    5.7486 C   0  0  0  0  0  0
   42.9666    7.1902    4.6508 O   0  0  0  0  0  0
   41.5608    6.5942    6.3578 N   0  0  0  0  0  0
   41.1815    5.2545    5.8498 C   0  0  0  0  0  0
   42.3430    4.5984    5.0110 C   0  0  0  0  0  0
   42.4340    3.0753    5.2049 C   0  0  0  0  0  0
   42.2327    4.8550    3.5026 C   0  0  0  0  0  0
   40.7079    4.3235    7.0244 C   0  0  0  0  0  0
   41.7278    4.2071    8.1585 C   0  0  0  0  0  0
   39.3513    4.7351    7.6107 C   0  0  0  0  0  0
   41.1488   10.5215    7.8234 S   0  0  0  0  0  0
   39.8734   11.1714    7.5707 O   0  0  0  0  0  0
   41.3002    9.6041    8.9386 O   0  0  0  0  0  0
   42.3546   11.8094    8.0248 C   0  0  0  0  0  0
   43.7077   11.4930    7.9145 C   0  0  0  0  0  0
   44.6618   12.4650    8.2068 C   0  0  0  0  0  0
   44.2636   13.7491    8.6025 C   0  0  0  0  0  0
   45.2800   14.7687    9.0209 C   0  0  0  0  0  0
   42.8994   14.0738    8.6292 C   0  0  0  0  0  0
   41.9391   13.1078    8.3336 C   0  0  0  0  0  0
   40.9745    7.0080    7.0702 H   0  0  0  0  0  0
  1  2  1  0  0  0
  2  3  1  0  0  0
  3  8  2  0  0  0
  3  4  1  0  0  0
  4  5  2  0  0  0
  5  6  1  0  0  0
  6  7  2  0  0  0
  6 11  1  0  0  0
  7  8  1  0  0  0
  8  9  1  0  0  0
  9 10  1  0  0  0
 11 12  1  0  0  0
 11 23  1  0  0  0
 12 13  1  0  0  0
 13 14  2  0  0  0
 13 15  1  0  0  0
 15 16  1  0  0  0
 15 33  1  0  0  0
 16 17  1  0  0  0
 16 20  1  0  0  0
 17 18  1  0  0  0
 17 19  1  0  0  0
 20 21  1  0  0  0
 20 22  1  0  0  0
 23 24  2  0  0  0
 23 25  2  0  0  0
 23 26  1  0  0  0
 26 32  2  0  0  0
 26 27  1  0  0  0
 27 28  2  0  0  0
 28 29  1  0  0  0
 29 30  1  0  0  0
 29 31  2  0  0  0
 31 32  1  0  0  0
M  END
>  <CHROM.1>
-90.51923889,58.72956667,-69.09638358,-74.22385400,38.44183388,102.27499701
27.79127548,144.04552618,-54.48683430,-48.36576170,41.89287565,9.83866146
5.97304372,1.10977556,-1.32233957,-0.47310598

>  <Name>
FXR_1

>  <RI>
1.65995e+07

>  <Rbt.Current_Directory>
/home/nvk/Dropbox/D3_challenge/ivan/test-docking/src/rdock

>  <Rbt.Executable>
rbdock ($Id: //depot/dev/client3/rdock/2013.1/src/exe/rbdock.cxx#4 $)

>  <Rbt.Library>
libRbt.so (2013.1, Build901 2013/11/27)

>  <Rbt.Parameter_File>
/home/nvk/Dropbox/D3_challenge/ivan/test-docking/rDock_2013.1_src/data/scripts/dock.prm

>  <Rbt.Receptor>
rdock_input.prm

>  <SCORE>
108.33

>  <SCORE.INTER>
101.652

>  <SCORE.INTER.CONST>
1

>  <SCORE.INTER.POLAR>
0

>  <SCORE.INTER.REPUL>
0

>  <SCORE.INTER.ROT>
10

>  <SCORE.INTER.VDW>
86.2518

>  <SCORE.INTER.norm>
3.17662

>  <SCORE.INTRA>
6.3465

>  <SCORE.INTRA.DIHEDRAL>
9.4729

>  <SCORE.INTRA.DIHEDRAL.0>
9.43705

>  <SCORE.INTRA.POLAR>
0

>  <SCORE.INTRA.POLAR.0>
0

>  <SCORE.INTRA.REPUL>
0

>  <SCORE.INTRA.REPUL.0>
0

>  <SCORE.INTRA.VDW>
1.61005

>  <SCORE.INTRA.VDW.0>
0.0605502

>  <SCORE.INTRA.norm>
0.198328

>  <SCORE.RESTR>
0.331606

>  <SCORE.RESTR.CAVITY>
0.331606

>  <SCORE.RESTR.norm>
0.0103627

>  <SCORE.SYSTEM>
0

>  <SCORE.SYSTEM.CONST>
0

>  <SCORE.SYSTEM.DIHEDRAL>
0

>  <SCORE.SYSTEM.norm>
0

>  <SCORE.heavy>
32

>  <SCORE.norm>
3.38531

$$$$
FXR_1
  rDOCK(R)          3D
libRbt.so/2013.1/901 2013/11/27
 33 34  0  0  0  0  0  0  0  0999 V2000
   41.2151   14.3970   -2.1575 C   0  0  0  0  0  0
   42.5100   14.2505   -1.5758 O   0  0  0  0  0  0
   42.5314   13.7102   -0.3172 C   0  0  0  0  0  0
   42.2558   14.4907    0.8159 C   0  0  0  0  0  0
   42.3517   13.9544    2.0986 C   0  0  0  0  0  0
   42.6945   12.6174    2.2612 C   0  0  0  0  0  0
   42.8759   11.8095    1.1435 C   0  0  0  0  0  0
   42.7970   12.3407   -0.1536 C   0  0  0  0  0  0
   43.0315   11.3888   -1.1087 O   0  0  0  0  0  0
   43.8030   11.7264   -2.2499 C   0  0  0  0  0  0
   42.8700   12.0703    3.5704 N   0  0  0  0  0  0
   41.7815   12.1790    4.5652 C   0  0  0  0  0  0
   42.0374   13.0885    5.7653 C   0  0  0  0  0  0
   41.7439   14.2828    5.7196 O   0  0  0  0  0  0
   42.6856   12.5274    6.8497 N   0  0  0  0  0  0
   42.9812   13.2372    8.1168 C   0  0  0  0  0  0
   41.9859   12.8199    9.2650 C   0  0  0  0  0  0
   42.3053   13.4967   10.6087 C   0  0  0  0  0  0
   40.5166   13.1235    8.9454 C   0  0  0  0  0  0
   44.4817   13.0310    8.5375 C   0  0  0  0  0  0
   45.2648   12.1317    7.5794 C   0  0  0  0  0  0
   45.2431   14.3501    8.7217 C   0  0  0  0  0  0
   44.0641   10.8722    3.7493 S   0  0  0  0  0  0
   44.2969   10.2243    2.4691 O   0  0  0  0  0  0
   45.1763   11.3885    4.5269 O   0  0  0  0  0  0
   43.1964    9.7059    4.7690 C   0  0  0  0  0  0
   43.9136    8.9545    5.6986 C   0  0  0  0  0  0
   43.2659    7.9424    6.4035 C   0  0  0  0  0  0
   41.9058    7.6869    6.1828 C   0  0  0  0  0  0
   41.2265    6.5330    6.8570 C   0  0  0  0  0  0
   41.1809    8.5053    5.3042 C   0  0  0  0  0  0
   41.8210    9.5229    4.5989 C   0  0  0  0  0  0
   43.1649   11.6534    6.6799 H   0  0  0  0  0  0
  1  2  1  0  0  0
  2  3  1  0  0  0
  3  8  2  0  0  0
  3  4  1  0  0  0
  4  5  2  0  0  0
  5  6  1  0  0  0
  6  7  2  0  0  0
  6 11  1  0  0  0
  7  8  1  0  0  0
  8  9  1  0  0  0
  9 10  1  0  0  0
 11 12  1  0  0  0
 11 23  1  0  0  0
 12 13  1  0  0  0
 13 14  2  0  0  0
 13 15  1  0  0  0
 15 16  1  0  0  0
 15 33  1  0  0  0
 16 17  1  0  0  0
 16 20  1  0  0  0
 17 18  1  0  0  0
 17 19  1  0  0  0
 20 21  1  0  0  0
 20 22  1  0  0  0
 23 24  2  0  0  0
 23 25  2  0  0  0
 23 26  1  0  0  0
 26 32  2  0  0  0
 26 27  1  0  0  0
 27 28  2  0  0  0
 28 29  1  0  0  0
 29 30  1  0  0  0
 29 31  2  0  0  0
 31 32  1  0  0  0
M  END
>  <CHROM.1>
-80.36539304,55.38126780,38.46919510,-111.86785286,-24.18241899,89.51187230
103.01892633,177.58898276,-1.52153614,-147.29473113,42.88329128,11.81952471
4.26360787,-3.00797932,1.55712330,3.13453365

>  <Name>
FXR_1

>  <RI>
1.65995e+07

>  <Rbt.Current_Directory>
/home/nvk/Dropbox/D3_challenge/ivan/test-docking/src/rdock

>  <Rbt.Executable>
rbdock ($Id: //depot/dev/client3/rdock/2013.1/src/exe/rbdock.cxx#4 $)

>  <Rbt.Library>
libRbt.so (2013.1, Build901 2013/11/27)

>  <Rbt.Parameter_File>
/home/nvk/Dropbox/D3_challenge/ivan/test-docking/rDock_2013.1_src/data/scripts/dock.prm

>  <Rbt.Receptor>
rdock_input.prm

>  <SCORE>
42.4901

>  <SCORE.INTER>
31.112

>  <SCORE.INTER.CONST>
1

>  <SCORE.INTER.POLAR>
0

>  <SCORE.INTER.REPUL>
0.312829

>  <SCORE.INTER.ROT>
10

>  <SCORE.INTER.VDW>
14.1478

>  <SCORE.INTER.norm>
0.972249

>  <SCORE.INTRA>
11.3485

>  <SCORE.INTRA.DIHEDRAL>
11.1131

>  <SCORE.INTRA.DIHEDRAL.0>
9.43705

>  <SCORE.INTRA.POLAR>
0

>  <SCORE.INTRA.POLAR.0>
0

>  <SCORE.INTRA.REPUL>
0

>  <SCORE.INTRA.REPUL.0>
0

>  <SCORE.INTRA.VDW>
5.79193

>  <SCORE.INTRA.VDW.0>
0.0605502

>  <SCORE.INTRA.norm>
0.35464

>  <SCORE.RESTR>
0.0296039

>  <SCORE.RESTR.CAVITY>
0.0296039

>  <SCORE.RESTR.norm>
0.000925121

>  <SCORE.SYSTEM>
0

>  <SCORE.SYSTEM.CONST>
0

>  <SCORE.SYSTEM.DIHEDRAL>
0

>  <SCORE.SYSTEM.norm>
0

>  <SCORE.heavy>
32

>  <SCORE.norm>
1.32781

$$$$
FXR_1
  rDOCK(R)          3D
libRbt.so/2013.1/901 2013/11/27
 33 34  0  0  0  0  0  0  0  0999 V2000
   43.3069   14.3164   10.1135 C   0  0  0  0  0  0
   42.3577   13.3451    9.6754 O   0  0  0  0  0  0
   42.1958   13.2516    8.3183 C   0  0  0  0  0  0
   42.8070   14.1656    7.4466 C   0  0  0  0  0  0
   42.5793   14.1110    6.0728 C   0  0  0  0  0  0
   41.7597   13.1175    5.5505 C   0  0  0  0  0  0
   41.2257   12.1481    6.3932 C   0  0  0  0  0  0
   41.4352   12.2005    7.7804 C   0  0  0  0  0  0
   40.8054   11.1731    8.4295 O   0  0  0  0  0  0
   41.4516   10.5445    9.5244 C   0  0  0  0  0  0
   41.4557   13.0914    4.1537 N   0  0  0  0  0  0
   40.5797   12.0311    3.6111 C   0  0  0  0  0  0
   41.0047   10.5881    3.8755 C   0  0  0  0  0  0
   40.2429    9.6548    3.6238 O   0  0  0  0  0  0
   42.2313   10.3977    4.4839 N   0  0  0  0  0  0
   42.8310    9.0751    4.7800 C   0  0  0  0  0  0
   44.1753    9.2124    5.5905 C   0  0  0  0  0  0
   45.2673    9.9677    4.8142 C   0  0  0  0  0  0
   44.0095    9.9217    6.9406 C   0  0  0  0  0  0
   41.7980    8.1426    5.5108 C   0  0  0  0  0  0
   42.4147    6.8457    6.0379 C   0  0  0  0  0  0
   41.0551    8.8452    6.6545 C   0  0  0  0  0  0
   41.6543   14.5470    3.2964 S   0  0  0  0  0  0
   40.3631   15.1947    3.1346 O   0  0  0  0  0  0
   42.7883   15.2853    3.8228 O   0  0  0  0  0  0
   42.1207   13.9181    1.7027 C   0  0  0  0  0  0
   41.4564   14.3854    0.5697 C   0  0  0  0  0  0
   41.7193   13.7986   -0.6661 C   0  0  0  0  0  0
   42.6464   12.7525   -0.7684 C   0  0  0  0  0  0
   42.8577   12.0445   -2.0728 C   0  0  0  0  0  0
   43.3648   12.3502    0.3670 C   0  0  0  0  0  0
   43.1106   12.9359    1.6060 C   0  0  0  0  0  0
   42.6355   11.2068    4.9362 H   0  0  0  0  0  0
  1  2  1  0  0  0
  2  3  1  0  0  0
  3  8  2  0  0  0
  3  4  1  0  0  0
  4  5  2  0  0  0
  5  6  1  0  0  0
  6  7  2  0  0  0
  6 11  1  0  0  0
  7  8  1  0  0  0
  8  9  1  0  0  0
  9 10  1  0  0  0
 11 12  1  0  0  0
 11 23  1  0  0  0
 12 13  1  0  0  0
 13 14  2  0  0  0
 13 15  1  0  0  0
 15 16  1  0  0  0
 15 33  1  0  0  0
 16 17  1  0  0  0
 16 20  1  0  0  0
 17 18  1  0  0  0
 17 19  1  0  0  0
 20 21  1  0  0  0
 20 22  1  0  0  0
 23 24  2  0  0  0
 23 25  2  0  0  0
 23 26  1  0  0  0
 26 32  2  0  0  0
 26 27  1  0  0  0
 27 28  2  0  0  0
 28 29  1  0  0  0
 29 30  1  0  0  0
 29 31  2  0  0  0
 31 32  1  0  0  0
M  END
>  <CHROM.1>
-7.39688278,-179.84088541,-40.09574250,-55.89938986,-99.49021649,169.82766541
-174.97044038,-62.45564102,-171.03847779,130.06585104,42.13347525,12.05552574
4.71490243,1.42178494,-1.48692802,1.70305330

>  <Name>
FXR_1

>  <RI>
1.65995e+07

>  <Rbt.Current_Directory>
/home/nvk/Dropbox/D3_challenge/ivan/test-docking/src/rdock

>  <Rbt.Executable>
rbdock ($Id: //depot/dev/client3/rdock/2013.1/src/exe/rbdock.cxx#4 $)

>  <Rbt.Library>
libRbt.so (2013.1, Build901 2013/11/27)

>  <Rbt.Parameter_File>
/home/nvk/Dropbox/D3_challenge/ivan/test-docking/rDock_2013.1_src/data/scripts/dock.prm

>  <Rbt.Receptor>
rdock_input.prm

>  <SCORE>
9.44056

>  <SCORE.INTER>
2.18087

>  <SCORE.INTER.CONST>
1

>  <SCORE.INTER.POLAR>
0

>  <SCORE.INTER.REPUL>
0

>  <SCORE.INTER.ROT>
10

>  <SCORE.INTER.VDW>
-13.2191

>  <SCORE.INTER.norm>
0.0681522

>  <SCORE.INTRA>
7.25969

>  <SCORE.INTRA.DIHEDRAL>
-1.04036

>  <SCORE.INTRA.DIHEDRAL.0>
9.43705

>  <SCORE.INTRA.POLAR>
-0.0764012

>  <SCORE.INTRA.POLAR.0>
0

>  <SCORE.INTRA.REPUL>
0

>  <SCORE.INTRA.REPUL.0>
0

>  <SCORE.INTRA.VDW>
8.03964

>  <SCORE.INTRA.VDW.0>
0.0605502

>  <SCORE.INTRA.norm>
0.226865

>  <SCORE.RESTR>
0

>  <SCORE.RESTR.CAVITY>
0

>  <SCORE.RESTR.norm>
0

>  <SCORE.SYSTEM>
0

>  <SCORE.SYSTEM.CONST>
0

>  <SCORE.SYSTEM.DIHEDRAL>
0

>  <SCORE.SYSTEM.norm>
0

>  <SCORE.heavy>
32

>  <SCORE.norm>
0.295018

$$$$
FXR_1
  rDOCK(R)          3D
libRbt.so/2013.1/901 2013/11/27
 33 34  0  0  0  0  0  0  0  0999 V2000
   44.0357   14.6337   10.4272 C   0  0  0  0  0  0
   43.1406   14.6535    9.3160 O   0  0  0  0  0  0
   43.0915   13.4992    8.5800 C   0  0  0  0  0  0
   43.5943   13.4473    7.2710 C   0  0  0  0  0  0
   43.4749   12.2922    6.5005 C   0  0  0  0  0  0
   42.8774   11.1613    7.0444 C   0  0  0  0  0  0
   42.4621   11.1699    8.3720 C   0  0  0  0  0  0
   42.5630   12.3313    9.1541 C   0  0  0  0  0  0
   42.0769   12.1372   10.4188 O   0  0  0  0  0  0
   41.6091   13.2516   11.1609 C   0  0  0  0  0  0
   42.6798    9.9928    6.2448 N   0  0  0  0  0  0
   41.8332   10.0638    5.0347 C   0  0  0  0  0  0
   42.2370   11.0861    3.9741 C   0  0  0  0  0  0
   43.3695   11.5678    3.9677 O   0  0  0  0  0  0
   41.2531   11.4988    3.0951 N   0  0  0  0  0  0
   41.4642   12.4472    1.9759 C   0  0  0  0  0  0
   41.6128   13.9301    2.4880 C   0  0  0  0  0  0
   41.3540   14.9720    1.3866 C   0  0  0  0  0  0
   40.6832   14.2719    3.6594 C   0  0  0  0  0  0
   42.6867   12.0068    1.0914 C   0  0  0  0  0  0
   42.4861   12.2738   -0.4013 C   0  0  0  0  0  0
   44.0126   12.6353    1.5392 C   0  0  0  0  0  0
   43.8314    8.7507    6.4008 S   0  0  0  0  0  0
   44.7410    8.7872    5.2676 O   0  0  0  0  0  0
   44.3461    8.7151    7.7580 O   0  0  0  0  0  0
   42.7948    7.3251    6.1860 C   0  0  0  0  0  0
   41.4787    7.3701    6.6434 C   0  0  0  0  0  0
   40.7028    6.2138    6.6042 C   0  0  0  0  0  0
   41.2397    5.0194    6.1050 C   0  0  0  0  0  0
   40.4493    3.7465    6.1568 C   0  0  0  0  0  0
   42.5378    5.0122    5.5740 C   0  0  0  0  0  0
   43.3186    6.1664    5.6055 C   0  0  0  0  0  0
   40.2996   11.3011    3.3677 H   0  0  0  0  0  0
  1  2  1  0  0  0
  2  3  1  0  0  0
  3  8  2  0  0  0
  3  4  1  0  0  0
  4  5  2  0  0  0
  5  6  1  0  0  0
  6  7  2  0  0  0
  6 11  1  0  0  0
  7  8  1  0  0  0
  8  9  1  0  0  0
  9 10  1  0  0  0
 11 12  1  0  0  0
 11 23  1  0  0  0
 12 13  1  0  0  0
 13 14  2  0  0  0
 13 15  1  0  0  0
 15 16  1  0  0  0
 15 33  1  0  0  0
 16 17  1  0  0  0
 16 20  1  0  0  0
 17 18  1  0  0  0
 17 19  1  0  0  0
 20 21  1  0  0  0
 20 22  1  0  0  0
 23 24  2  0  0  0
 23 25  2  0  0  0
 23 26  1  0  0  0
 26 32  2  0  0  0
 26 27  1  0  0  0
 27 28  2  0  0  0
 28 29  1  0  0  0
 29 30  1  0  0  0
 29 31  2  0  0  0
 31 32  1  0  0  0
M  END
>  <CHROM.1>
-111.12866874,-60.82853426,23.18252411,57.30279740,-102.23330164,17.79942976
-74.51851767,-160.40941190,143.39597502,-33.14520322,42.56859536,10.69160921
5.79195457,-1.41327104,1.47150998,2.63688699

>  <Name>
FXR_1

>  <RI>
1.65995e+07

>  <Rbt.Current_Directory>
/home/nvk/Dropbox/D3_challenge/ivan/test-docking/src/rdock

>  <Rbt.Executable>
rbdock ($Id: //depot/dev/client3/rdock/2013.1/src/exe/rbdock.cxx#4 $)

>  <Rbt.Library>
libRbt.so (2013.1, Build901 2013/11/27)

>  <Rbt.Parameter_File>
/home/nvk/Dropbox/D3_challenge/ivan/test-docking/rDock_2013.1_src/data/scripts/dock.prm

>  <Rbt.Receptor>
rdock_input.prm

>  <SCORE>
19.9126

>  <SCORE.INTER>
11.283

>  <SCORE.INTER.CONST>
1

>  <SCORE.INTER.POLAR>
0

>  <SCORE.INTER.REPUL>
0

>  <SCORE.INTER.ROT>
10

>  <SCORE.INTER.VDW>
-4.11702

>  <SCORE.INTER.norm>
0.352593

>  <SCORE.INTRA>
8.62966

>  <SCORE.INTRA.DIHEDRAL>
6.29958

>  <SCORE.INTRA.DIHEDRAL.0>
9.43705

>  <SCORE.INTRA.POLAR>
0

>  <SCORE.INTRA.POLAR.0>
0

>  <SCORE.INTRA.REPUL>
0

>  <SCORE.INTRA.REPUL.0>
0

>  <SCORE.INTRA.VDW>
5.47987

>  <SCORE.INTRA.VDW.0>
0.0605502

>  <SCORE.INTRA.norm>
0.269677

>  <SCORE.RESTR>
0

>  <SCORE.RESTR.CAVITY>
0

>  <SCORE.RESTR.norm>
0

>  <SCORE.SYSTEM>
0

>  <SCORE.SYSTEM.CONST>
0

>  <SCORE.SYSTEM.DIHEDRAL>
0

>  <SCORE.SYSTEM.norm>
0

>  <SCORE.heavy>
32

>  <SCORE.norm>
0.62227

$$$$
FXR_1
  rDOCK(R)          3D
libRbt.so/2013.1/901 2013/11/27
 33 34  0  0  0  0  0  0  0  0999 V2000
   41.9134    5.7474    5.8616 C   0  0  0  0  0  0
   42.0404    6.8457    6.7638 O   0  0  0  0  0  0
   42.2926    8.0593    6.1808 C   0  0  0  0  0  0
   41.2484    8.9124    5.7923 C   0  0  0  0  0  0
   41.5083   10.1122    5.1325 C   0  0  0  0  0  0
   42.8225   10.4885    4.8818 C   0  0  0  0  0  0
   43.8685    9.6983    5.3472 C   0  0  0  0  0  0
   43.6203    8.4804    5.9997 C   0  0  0  0  0  0
   44.7807    7.8464    6.3530 O   0  0  0  0  0  0
   45.0344    6.5399    5.8629 C   0  0  0  0  0  0
   43.1049   11.6784    4.1412 N   0  0  0  0  0  0
   43.0550   12.9936    4.8148 C   0  0  0  0  0  0
   42.4383   13.0257    6.2119 C   0  0  0  0  0  0
   41.2522   13.3155    6.3663 O   0  0  0  0  0  0
   43.2900   12.8039    7.2779 N   0  0  0  0  0  0
   42.8697   12.7529    8.6983 C   0  0  0  0  0  0
   42.5796   11.2771    9.1682 C   0  0  0  0  0  0
   41.3867   10.6397    8.4359 C   0  0  0  0  0  0
   43.7739   10.3304    8.9934 C   0  0  0  0  0  0
   43.9244   13.4656    9.6204 C   0  0  0  0  0  0
   44.6252   14.6457    8.9450 C   0  0  0  0  0  0
   43.3380   13.9308   10.9597 C   0  0  0  0  0  0
   43.9970   11.4962    2.7044 S   0  0  0  0  0  0
   45.3117   12.0934    2.8707 O   0  0  0  0  0  0
   43.8615   10.1409    2.2016 O   0  0  0  0  0  0
   43.0784   12.5614    1.6207 C   0  0  0  0  0  0
   41.7724   12.9100    1.9613 C   0  0  0  0  0  0
   40.9993   13.6298    1.0531 C   0  0  0  0  0  0
   41.5324   14.0034   -0.1880 C   0  0  0  0  0  0
   40.6761   14.6844   -1.2130 C   0  0  0  0  0  0
   42.8734   13.7153   -0.4808 C   0  0  0  0  0  0
   43.6545   12.9995    0.4248 C   0  0  0  0  0  0
   44.2787   12.8923    7.0851 H   0  0  0  0  0  0
  1  2  1  0  0  0
  2  3  1  0  0  0
  3  8  2  0  0  0
  3  4  1  0  0  0
  4  5  2  0  0  0
  5  6  1  0  0  0
  6  7  2  0  0  0
  6 11  1  0  0  0
  7  8  1  0  0  0
  8  9  1  0  0  0
  9 10  1  0  0  0
 11 12  1  0  0  0
 11 23  1  0  0  0
 12 13  1  0  0  0
 13 14  2  0  0  0
 13 15  1  0  0  0
 15 16  1  0  0  0
 15 33  1  0  0  0
 16 17  1  0  0  0
 16 20  1  0  0  0
 17 18  1  0  0  0
 17 19  1  0  0  0
 20 21  1  0  0  0
 20 22  1  0  0  0
 23 24  2  0  0  0
 23 25  2  0  0  0
 23 26  1  0  0  0
 26 32  2  0  0  0
 26 27  1  0  0  0
 27 28  2  0  0  0
 28 29  1  0  0  0
 29 30  1  0  0  0
 29 31  2  0  0  0
 31 32  1  0  0  0
M  END
>  <CHROM.1>
90.26947838,80.39952377,56.88895252,-11.48634691,-111.66764710,-95.27043618
94.20098840,-64.67480239,32.67411074,-19.23952183,42.96516124,11.27655293
5.05510405,-0.30031355,1.47960107,-2.47966859

>  <Name>
FXR_1

>  <RI>
1.65995e+07

>  <Rbt.Current_Directory>
/home/nvk/Dropbox/D3_challenge/ivan/test-docking/src/rdock

>  <Rbt.Executable>
rbdock ($Id: //depot/dev/client3/rdock/2013.1/src/exe/rbdock.cxx#4 $)

>  <Rbt.Library>
libRbt.so (2013.1, Build901 2013/11/27)

>  <Rbt.Parameter_File>
/home/nvk/Dropbox/D3_challenge/ivan/test-docking/rDock_2013.1_src/data/scripts/dock.prm

>  <Rbt.Receptor>
rdock_input.prm

>  <SCORE>
-4.45865

>  <SCORE.INTER>
-4.57385

>  <SCORE.INTER.CONST>
1

>  <SCORE.INTER.POLAR>
0

>  <SCORE.INTER.REPUL>
0.0941571

>  <SCORE.INTER.ROT>
10

>  <SCORE.INTER.VDW>
-20.4446

>  <SCORE.INTER.norm>
-0.142933

>  <SCORE.INTRA>
0.115205

>  <SCORE.INTRA.DIHEDRAL>
8.36114

>  <SCORE.INTRA.DIHEDRAL.0>
9.43705

>  <SCORE.INTRA.POLAR>
0

>  <SCORE.INTRA.POLAR.0>
0

>  <SCORE.INTRA.REPUL>
0

>  <SCORE.INTRA.REPUL.0>
0

>  <SCORE.INTRA.VDW>
-4.06536

>  <SCORE.INTRA.VDW.0>
0.0605502

>  <SCORE.INTRA.norm>
0.00360015

>  <SCORE.RESTR>
0

>  <SCORE.RESTR.CAVITY>
0

>  <SCORE.RESTR.norm>
0

>  <SCORE.SYSTEM>
0

>  <SCORE.SYSTEM.CONST>
0

>  <SCORE.SYSTEM.DIHEDRAL>
0

>  <SCORE.SYSTEM.norm>
0

>  <SCORE.heavy>
32

>  <SCORE.norm>
-0.139333

$$$$
FXR_1
  rDOCK(R)          3D
libRbt.so/2013.1/901 2013/11/27
 33 34  0  0  0  0  0  0  0  0999 V2000
   41.3572   14.5870    1.2948 C   0  0  0  0  0  0
   42.5241   14.4704    2.1079 O   0  0  0  0  0  0
   42.4554   13.5323    3.1038 C   0  0  0  0  0  0
   41.7824   13.7943    4.3069 C   0  0  0  0  0  0
   41.7788   12.8651    5.3455 C   0  0  0  0  0  0
   42.4241   11.6454    5.1792 C   0  0  0  0  0  0
   43.0121   11.3355    3.9573 C   0  0  0  0  0  0
   43.0357   12.2683    2.9085 C   0  0  0  0  0  0
   43.6822   11.7783    1.8060 O   0  0  0  0  0  0
   43.0248   11.8005    0.5494 C   0  0  0  0  0  0
   42.4938   10.7115    6.2596 N   0  0  0  0  0  0
   41.5120    9.6093    6.3439 C   0  0  0  0  0  0
   41.8102    8.3603    5.5168 C   0  0  0  0  0  0
   41.9012    8.4277    4.2913 O   0  0  0  0  0  0
   41.8816    7.1598    6.1985 N   0  0  0  0  0  0
   42.2032    5.8533    5.5768 C   0  0  0  0  0  0
   43.7587    5.6304    5.4592 C   0  0  0  0  0  0
   44.2519    5.6124    4.0025 C   0  0  0  0  0  0
   44.5887    6.6844    6.2031 C   0  0  0  0  0  0
   41.4987    4.6780    6.3468 C   0  0  0  0  0  0
   39.9716    4.7648    6.3256 C   0  0  0  0  0  0
   41.9286    3.2904    5.8534 C   0  0  0  0  0  0
   43.9847   10.5812    7.0681 S   0  0  0  0  0  0
   44.0650    9.2911    7.7328 O   0  0  0  0  0  0
   45.0613   11.0341    6.2055 O   0  0  0  0  0  0
   43.7678   11.8042    8.3371 C   0  0  0  0  0  0
   42.6882   11.6884    9.2113 C   0  0  0  0  0  0
   42.4319   12.7138   10.1188 C   0  0  0  0  0  0
   43.2552   13.8473   10.1547 C   0  0  0  0  0  0
   42.9260   15.0019   11.0526 C   0  0  0  0  0  0
   44.3840   13.9102    9.3246 C   0  0  0  0  0  0
   44.6495   12.8859    8.4173 C   0  0  0  0  0  0
   41.4856    7.1506    7.1289 H   0  0  0  0  0  0
  1  2  1  0  0  0
  2  3  1  0  0  0
  3  8  2  0  0  0
  3  4  1  0  0  0
  4  5  2  0  0  0
  5  6  1  0  0  0
  6  7  2  0  0  0
  6 11  1  0  0  0
  7  8  1  0  0  0
  8  9  1  0  0  0
  9 10  1  0  0  0
 11 12  1  0  0  0
 11 23  1  0  0  0
 12 13  1  0  0  0
 13 14  2  0  0  0
 13 15  1  0  0  0
 15 16  1  0  0  0
 15 33  1  0  0  0
 16 17  1  0  0  0
 16 20  1  0  0  0
 17 18  1  0  0  0
 17 19  1  0  0  0
 20 21  1  0  0  0
 20 22  1  0  0  0
 23 24  2  0  0  0
 23 25  2  0  0  0
 23 26  1  0  0  0
 26 32  2  0  0  0
 26 27  1  0  0  0
 27 28  2  0  0  0
 28 29  1  0  0  0
 29 30  1  0  0  0
 29 31  2  0  0  0
 31 32  1  0  0  0
M  END
>  <CHROM.1>
-79.40386623,96.71872950,-54.85618581,83.40898422,-157.55097731,-60.80387458
84.44120559,-112.91519852,61.97227506,57.52404824,42.86847620,10.31053667
5.81687453,0.95874651,-1.43852180,-0.55701406

>  <Name>
FXR_1

>  <RI>
1.65995e+07

>  <Rbt.Current_Directory>
/home/nvk/Dropbox/D3_challenge/ivan/test-docking/src/rdock

>  <Rbt.Executable>
rbdock ($Id: //depot/dev/client3/rdock/2013.1/src/exe/rbdock.cxx#4 $)

>  <Rbt.Library>
libRbt.so (2013.1, Build901 2013/11/27)

>  <Rbt.Parameter_File>
/home/nvk/Dropbox/D3_challenge/ivan/test-docking/rDock_2013.1_src/data/scripts/dock.prm

>  <Rbt.Receptor>
rdock_input.prm

>  <SCORE>
22.7362

>  <SCORE.INTER>
20.7319

>  <SCORE.INTER.CONST>
1

>  <SCORE.INTER.POLAR>
0

>  <SCORE.INTER.REPUL>
0

>  <SCORE.INTER.ROT>
10

>  <SCORE.INTER.VDW>
5.33193

>  <SCORE.INTER.norm>
0.647873

>  <SCORE.INTRA>
1.99208

>  <SCORE.INTRA.DIHEDRAL>
11.1548

>  <SCORE.INTRA.DIHEDRAL.0>
9.43705

>  <SCORE.INTRA.POLAR>
0

>  <SCORE.INTRA.POLAR.0>
0

>  <SCORE.INTRA.REPUL>
0

>  <SCORE.INTRA.REPUL.0>
0

>  <SCORE.INTRA.VDW>
-3.58532

>  <SCORE.INTRA.VDW.0>
0.0605502

>  <SCORE.INTRA.norm>
0.0622526

>  <SCORE.RESTR>
0.0121393

>  <SCORE.RESTR.CAVITY>
0.0121393

>  <SCORE.RESTR.norm>
0.000379355

>  <SCORE.SYSTEM>
0

>  <SCORE.SYSTEM.CONST>
0

>  <SCORE.SYSTEM.DIHEDRAL>
0

>  <SCORE.SYSTEM.norm>
0

>  <SCORE.heavy>
32

>  <SCORE.norm>
0.710505

$$$$
FXR_1
  rDOCK(R)          3D
libRbt.so/2013.1/901 2013/11/27
 33 34  0  0  0  0  0  0  0  0999 V2000
   41.8402   15.2576    8.4309 C   0  0  0  0  0  0
   41.5255   13.9300    8.8492 O   0  0  0  0  0  0
   41.8761   12.9384    7.9715 C   0  0  0  0  0  0
   40.9460   11.9763    7.5491 C   0  0  0  0  0  0
   41.3263   10.9267    6.7150 C   0  0  0  0  0  0
   42.6394   10.8457    6.2666 C   0  0  0  0  0  0
   43.5466   11.8459    6.6002 C   0  0  0  0  0  0
   43.1803   12.9003    7.4516 C   0  0  0  0  0  0
   44.2218   13.7601    7.6742 O   0  0  0  0  0  0
   44.6633   13.9855    9.0030 C   0  0  0  0  0  0
   43.0644    9.7359    5.4716 N   0  0  0  0  0  0
   43.0867    9.8523    3.9978 C   0  0  0  0  0  0
   42.0274   10.7523    3.3648 C   0  0  0  0  0  0
   40.8340   10.4599    3.4351 O   0  0  0  0  0  0
   42.4802   11.8431    2.6463 N   0  0  0  0  0  0
   41.6061   12.8504    1.9997 C   0  0  0  0  0  0
   41.5421   14.1871    2.8317 C   0  0  0  0  0  0
   40.7289   14.0455    4.1295 C   0  0  0  0  0  0
   42.9208   14.7354    3.2213 C   0  0  0  0  0  0
   42.0494   13.1052    0.5134 C   0  0  0  0  0  0
   41.2421   14.2019   -0.1835 C   0  0  0  0  0  0
   43.5447   13.4193    0.3753 C   0  0  0  0  0  0
   44.0206    8.5593    6.2428 S   0  0  0  0  0  0
   45.0753    8.1247    5.3419 O   0  0  0  0  0  0
   44.3347    8.9804    7.5963 O   0  0  0  0  0  0
   42.8550    7.2246    6.3563 C   0  0  0  0  0  0
   43.2656    5.9366    6.0162 C   0  0  0  0  0  0
   42.3246    4.9104    5.9696 C   0  0  0  0  0  0
   40.9801    5.1709    6.2670 C   0  0  0  0  0  0
   39.9433    4.0986    6.1168 C   0  0  0  0  0  0
   40.5995    6.4541    6.6863 C   0  0  0  0  0  0
   41.5362    7.4849    6.7398 C   0  0  0  0  0  0
   43.4545   11.8263    2.3762 H   0  0  0  0  0  0
  1  2  1  0  0  0
  2  3  1  0  0  0
  3  8  2  0  0  0
  3  4  1  0  0  0
  4  5  2  0  0  0
  5  6  1  0  0  0
  6  7  2  0  0  0
  6 11  1  0  0  0
  7  8  1  0  0  0
  8  9  1  0  0  0
  9 10  1  0  0  0
 11 12  1  0  0  0
 11 23  1  0  0  0
 12 13  1  0  0  0
 13 14  2  0  0  0
 13 15  1  0  0  0
 15 16  1  0  0  0
 15 33  1  0  0  0
 16 17  1  0  0  0
 16 20  1  0  0  0
 17 18  1  0  0  0
 17 19  1  0  0  0
 20 21  1  0  0  0
 20 22  1  0  0  0
 23 24  2  0  0  0
 23 25  2  0  0  0
 23 26  1  0  0  0
 26 32  2  0  0  0
 26 27  1  0  0  0
 27 28  2  0  0  0
 28 29  1  0  0  0
 29 30  1  0  0  0
 29 31  2  0  0  0
 31 32  1  0  0  0
M  END
>  <CHROM.1>
-127.77948248,96.11486260,56.93193149,-32.09567458,-139.72502286,-65.51719295
102.92063251,-72.11744282,-176.30133633,134.87024149,42.46391235,10.75747936
5.38414499,-1.56579047,1.41089698,2.79753866

>  <Name>
FXR_1

>  <RI>
1.65995e+07

>  <Rbt.Current_Directory>
/home/nvk/Dropbox/D3_challenge/ivan/test-docking/src/rdock

>  <Rbt.Executable>
rbdock ($Id: //depot/dev/client3/rdock/2013.1/src/exe/rbdock.cxx#4 $)

>  <Rbt.Library>
libRbt.so (2013.1, Build901 2013/11/27)

>  <Rbt.Parameter_File>
/home/nvk/Dropbox/D3_challenge/ivan/test-docking/rDock_2013.1_src/data/scripts/dock.prm

>  <Rbt.Receptor>
rdock_input.prm

>  <SCORE>
9.39708

>  <SCORE.INTER>
8.26643

>  <SCORE.INTER.CONST>
1

>  <SCORE.INTER.POLAR>
0

>  <SCORE.INTER.REPUL>
0

>  <SCORE.INTER.ROT>
10

>  <SCORE.INTER.VDW>
-7.13357

>  <SCORE.INTER.norm>
0.258326

>  <SCORE.INTRA>
1.13065

>  <SCORE.INTRA.DIHEDRAL>
4.93223

>  <SCORE.INTRA.DIHEDRAL.0>
9.43705

>  <SCORE.INTRA.POLAR>
0

>  <SCORE.INTRA.POLAR.0>
0

>  <SCORE.INTRA.REPUL>
0

>  <SCORE.INTRA.REPUL.0>
0

>  <SCORE.INTRA.VDW>
-1.33547

>  <SCORE.INTRA.VDW.0>
0.0605502

>  <SCORE.INTRA.norm>
0.0353327

>  <SCORE.RESTR>
0

>  <SCORE.RESTR.CAVITY>
0

>  <SCORE.RESTR.norm>
0

>  <SCORE.SYSTEM>
0

>  <SCORE.SYSTEM.CONST>
0

>  <SCORE.SYSTEM.DIHEDRAL>
0

>  <SCORE.SYSTEM.norm>
0

>  <SCORE.heavy>
32

>  <SCORE.norm>
0.293659

$$$$
FXR_1
  rDOCK(R)          3D
libRbt.so/2013.1/901 2013/11/27
 33 34  0  0  0  0  0  0  0  0999 V2000
   41.8605   15.2061    8.4361 C   0  0  0  0  0  0
   42.1653   13.9572    9.0555 O   0  0  0  0  0  0
   42.3200   12.8988    8.1997 C   0  0  0  0  0  0
   41.2111   12.2365    7.6513 C   0  0  0  0  0  0
   41.3726   11.1144    6.8408 C   0  0  0  0  0  0
   42.6517   10.6599    6.5425 C   0  0  0  0  0  0
   43.7600   11.3644    7.0010 C   0  0  0  0  0  0
   43.6112   12.4872    7.8305 C   0  0  0  0  0  0
   44.8203   13.0179    8.1906 O   0  0  0  0  0  0
   44.8667   14.3180    8.7555 C   0  0  0  0  0  0
   42.8344    9.4678    5.7745 N   0  0  0  0  0  0
   42.3126    9.3955    4.3930 C   0  0  0  0  0  0
   42.6022   10.5906    3.4869 C   0  0  0  0  0  0
   43.7456   10.8125    3.0895 O   0  0  0  0  0  0
   41.5473   11.4424    3.2171 N   0  0  0  0  0  0
   41.6235   12.6255    2.3276 C   0  0  0  0  0  0
   41.8574   13.9538    3.1425 C   0  0  0  0  0  0
   40.5467   14.5997    3.6225 C   0  0  0  0  0  0
   42.7474   13.7683    4.3780 C   0  0  0  0  0  0
   42.7142   12.4203    1.2146 C   0  0  0  0  0  0
   42.2054   12.7123   -0.1981 C   0  0  0  0  0  0
   43.9916   13.2323    1.4649 C   0  0  0  0  0  0
   44.0833    8.4218    6.2638 S   0  0  0  0  0  0
   45.1510    8.4465    5.2779 O   0  0  0  0  0  0
   44.3760    8.6189    7.6722 O   0  0  0  0  0  0
   43.2673    6.8529    6.1031 C   0  0  0  0  0  0
   43.9092    5.8232    5.4169 C   0  0  0  0  0  0
   43.2220    4.6375    5.1670 C   0  0  0  0  0  0
   41.9005    4.4810    5.6064 C   0  0  0  0  0  0
   41.1181    3.2525    5.2508 C   0  0  0  0  0  0
   41.2983    5.4949    6.3656 C   0  0  0  0  0  0
   41.9812    6.6823    6.6236 C   0  0  0  0  0  0
   40.7452   11.3669    3.8281 H   0  0  0  0  0  0
  1  2  1  0  0  0
  2  3  1  0  0  0
  3  8  2  0  0  0
  3  4  1  0  0  0
  4  5  2  0  0  0
  5  6  1  0  0  0
  6  7  2  0  0  0
  6 11  1  0  0  0
  7  8  1  0  0  0
  8  9  1  0  0  0
  9 10  1  0  0  0
 11 12  1  0  0  0
 11 23  1  0  0  0
 12 13  1  0  0  0
 13 14  2  0  0  0
 13 15  1  0  0  0
 15 16  1  0  0  0
 15 33  1  0  0  0
 16 17  1  0  0  0
 16 20  1  0  0  0
 17 18  1  0  0  0
 17 19  1  0  0  0
 20 21  1  0  0  0
 20 22  1  0  0  0
 23 24  2  0  0  0
 23 25  2  0  0  0
 23 26  1  0  0  0
 26 32  2  0  0  0
 26 27  1  0  0  0
 27 28  2  0  0  0
 28 29  1  0  0  0
 29 30  1  0  0  0
 29 31  2  0  0  0
 31 32  1  0  0  0
M  END
>  <CHROM.1>
-78.92269285,61.26081472,-16.15916653,46.55830204,-110.40455993,69.96735423
-97.09011347,-87.33405774,129.71245962,130.93032433,42.82193234,10.47075659
5.46671134,-1.72321561,1.42782426,-3.05588195

>  <Name>
FXR_1

>  <RI>
1.65995e+07

>  <Rbt.Current_Directory>
/home/nvk/Dropbox/D3_challenge/ivan/test-docking/src/rdock

>  <Rbt.Executable>
rbdock ($Id: //depot/dev/client3/rdock/2013.1/src/exe/rbdock.cxx#4 $)

>  <Rbt.Library>
libRbt.so (2013.1, Build901 2013/11/27)

>  <Rbt.Parameter_File>
/home/nvk/Dropbox/D3_challenge/ivan/test-docking/rDock_2013.1_src/data/scripts/dock.prm

>  <Rbt.Receptor>
rdock_input.prm

>  <SCORE>
16.1936

>  <SCORE.INTER>
9.63185

>  <SCORE.INTER.CONST>
1

>  <SCORE.INTER.POLAR>
0

>  <SCORE.INTER.REPUL>
0

>  <SCORE.INTER.ROT>
10

>  <SCORE.INTER.VDW>
-5.76815

>  <SCORE.INTER.norm>
0.300995

>  <SCORE.INTRA>
6.47381

>  <SCORE.INTRA.DIHEDRAL>
9.81909

>  <SCORE.INTRA.DIHEDRAL.0>
9.43705

>  <SCORE.INTRA.POLAR>
0

>  <SCORE.INTRA.POLAR.0>
0

>  <SCORE.INTRA.REPUL>
0

>  <SCORE.INTRA.REPUL.0>
0

>  <SCORE.INTRA.VDW>
1.56426

>  <SCORE.INTRA.VDW.0>
0.0605502

>  <SCORE.INTRA.norm>
0.202306

>  <SCORE.RESTR>
0.0879112

>  <SCORE.RESTR.CAVITY>
0.0879112

>  <SCORE.RESTR.norm>
0.00274722

>  <SCORE.SYSTEM>
0

>  <SCORE.SYSTEM.CONST>
0

>  <SCORE.SYSTEM.DIHEDRAL>
0

>  <SCORE.SYSTEM.norm>
0

>  <SCORE.heavy>
32

>  <SCORE.norm>
0.506049

$$$$
FXR_1
  rDOCK(R)          3D
libRbt.so/2013.1/901 2013/11/27
 33 34  0  0  0  0  0  0  0  0999 V2000
   42.0703   13.5396   11.4524 C   0  0  0  0  0  0
   42.7365   13.9197   10.2490 O   0  0  0  0  0  0
   42.7157   12.9873    9.2457 C   0  0  0  0  0  0
   41.5632   12.2342    8.9742 C   0  0  0  0  0  0
   41.5698   11.2354    8.0023 C   0  0  0  0  0  0
   42.7249   10.9998    7.2661 C   0  0  0  0  0  0
   43.8435   11.8036    7.4593 C   0  0  0  0  0  0
   43.8549   12.8029    8.4451 C   0  0  0  0  0  0
   45.0548   13.4600    8.4901 O   0  0  0  0  0  0
   45.1191   14.7470    9.0828 C   0  0  0  0  0  0
   42.7721    9.9307    6.3180 N   0  0  0  0  0  0
   42.1347   10.0931    4.9938 C   0  0  0  0  0  0
   42.5098   11.3435    4.2007 C   0  0  0  0  0  0
   43.2302   12.2081    4.6986 O   0  0  0  0  0  0
   41.9342   11.4896    2.9523 N   0  0  0  0  0  0
   42.2094   12.6095    2.0213 C   0  0  0  0  0  0
   42.5539   12.0928    0.5730 C   0  0  0  0  0  0
   43.3378   13.1221   -0.2585 C   0  0  0  0  0  0
   43.3661   10.7914    0.5617 C   0  0  0  0  0  0
   41.0179   13.6346    2.0104 C   0  0  0  0  0  0
   40.4899   13.9696    3.4064 C   0  0  0  0  0  0
   41.3510   14.9387    1.2743 C   0  0  0  0  0  0
   43.9925    8.7656    6.5332 S   0  0  0  0  0  0
   44.9844    8.9015    5.4795 O   0  0  0  0  0  0
   44.3989    8.7203    7.9264 O   0  0  0  0  0  0
   43.0795    7.2805    6.1955 C   0  0  0  0  0  0
   41.7354    7.2147    6.5593 C   0  0  0  0  0  0
   41.0502    6.0093    6.4246 C   0  0  0  0  0  0
   41.7055    4.8766    5.9233 C   0  0  0  0  0  0
   41.0081    3.5503    5.8741 C   0  0  0  0  0  0
   43.0340    4.9817    5.4860 C   0  0  0  0  0  0
   43.7247    6.1856    5.6134 C   0  0  0  0  0  0
   41.1276   10.9101    2.7622 H   0  0  0  0  0  0
  1  2  1  0  0  0
  2  3  1  0  0  0
  3  8  2  0  0  0
  3  4  1  0  0  0
  4  5  2  0  0  0
  5  6  1  0  0  0
  6  7  2  0  0  0
  6 11  1  0  0  0
  7  8  1  0  0  0
  8  9  1  0  0  0
  9 10  1  0  0  0
 11 12  1  0  0  0
 11 23  1  0  0  0
 12 13  1  0  0  0
 13 14  2  0  0  0
 13 15  1  0  0  0
 15 16  1  0  0  0
 15 33  1  0  0  0
 16 17  1  0  0  0
 16 20  1  0  0  0
 17 18  1  0  0  0
 17 19  1  0  0  0
 20 21  1  0  0  0
 20 22  1  0  0  0
 23 24  2  0  0  0
 23 25  2  0  0  0
 23 26  1  0  0  0
 26 32  2  0  0  0
 26 27  1  0  0  0
 27 28  2  0  0  0
 28 29  1  0  0  0
 29 30  1  0  0  0
 29 31  2  0  0  0
 31 32  1  0  0  0
M  END
>  <CHROM.1>
40.57788776,78.12084448,-22.05749172,51.44086801,-109.63394118,-5.19212014
130.25842780,-158.44513668,44.26341821,-33.90064913,42.79460400,10.63932706
5.75218857,-1.71491196,1.43844734,2.89592541

>  <Name>
FXR_1

>  <RI>
1.65995e+07

>  <Rbt.Current_Directory>
/home/nvk/Dropbox/D3_challenge/ivan/test-docking/src/rdock

>  <Rbt.Executable>
rbdock ($Id: //depot/dev/client3/rdock/2013.1/src/exe/rbdock.cxx#4 $)

>  <Rbt.Library>
libRbt.so (2013.1, Build901 2013/11/27)

>  <Rbt.Parameter_File>
/home/nvk/Dropbox/D3_challenge/ivan/test-docking/rDock_2013.1_src/data/scripts/dock.prm

>  <Rbt.Receptor>
rdock_input.prm

>  <SCORE>
9.24492

>  <SCORE.INTER>
7.42145

>  <SCORE.INTER.CONST>
1

>  <SCORE.INTER.POLAR>
0

>  <SCORE.INTER.REPUL>
0

>  <SCORE.INTER.ROT>
10

>  <SCORE.INTER.VDW>
-7.97855

>  <SCORE.INTER.norm>
0.23192

>  <SCORE.INTRA>
1.82346

>  <SCORE.INTRA.DIHEDRAL>
1.9924

>  <SCORE.INTRA.DIHEDRAL.0>
9.43705

>  <SCORE.INTRA.POLAR>
0

>  <SCORE.INTRA.POLAR.0>
0

>  <SCORE.INTRA.REPUL>
0

>  <SCORE.INTRA.REPUL.0>
0

>  <SCORE.INTRA.VDW>
0.827265

>  <SCORE.INTRA.VDW.0>
0.0605502

>  <SCORE.INTRA.norm>
0.0569832

>  <SCORE.RESTR>
0

>  <SCORE.RESTR.CAVITY>
0

>  <SCORE.RESTR.norm>
0

>  <SCORE.SYSTEM>
0

>  <SCORE.SYSTEM.CONST>
0

>  <SCORE.SYSTEM.DIHEDRAL>
0

>  <SCORE.SYSTEM.norm>
0

>  <SCORE.heavy>
32

>  <SCORE.norm>
0.288904

$$$$
FXR_1
  rDOCK(R)          3D
libRbt.so/2013.1/901 2013/11/27
 33 34  0  0  0  0  0  0  0  0999 V2000
   39.0650    3.8098    6.1590 C   0  0  0  0  0  0
   40.3457    3.9785    6.7654 O   0  0  0  0  0  0
   40.9672    5.1711    6.5047 C   0  0  0  0  0  0
   40.4706    6.3793    7.0172 C   0  0  0  0  0  0
   41.0630    7.5971    6.6882 C   0  0  0  0  0  0
   42.1829    7.6170    5.8653 C   0  0  0  0  0  0
   42.7417    6.4200    5.4295 C   0  0  0  0  0  0
   42.1461    5.1876    5.7413 C   0  0  0  0  0  0
   42.8347    4.1373    5.1972 O   0  0  0  0  0  0
   42.1338    2.9549    4.8475 C   0  0  0  0  0  0
   42.7583    8.8607    5.4577 N   0  0  0  0  0  0
   41.8848    9.9543    4.9809 C   0  0  0  0  0  0
   42.1855   10.5167    3.5930 C   0  0  0  0  0  0
   42.7616    9.8294    2.7502 O   0  0  0  0  0  0
   41.8620   11.8422    3.3706 N   0  0  0  0  0  0
   42.0377   12.5493    2.0799 C   0  0  0  0  0  0
   40.8016   13.4675    1.7448 C   0  0  0  0  0  0
   40.8353   14.0149    0.3080 C   0  0  0  0  0  0
   39.4487   12.7683    1.9293 C   0  0  0  0  0  0
   43.3881   13.3536    2.0611 C   0  0  0  0  0  0
   43.3859   14.5693    2.9895 C   0  0  0  0  0  0
   44.6122   12.4844    2.3766 C   0  0  0  0  0  0
   44.3166    9.2146    6.0405 S   0  0  0  0  0  0
   44.7838    8.1183    6.8728 O   0  0  0  0  0  0
   45.1462    9.7292    4.9658 O   0  0  0  0  0  0
   43.9510   10.5700    7.1278 C   0  0  0  0  0  0
   43.8703   11.8579    6.6006 C   0  0  0  0  0  0
   43.7215   12.9407    7.4643 C   0  0  0  0  0  0
   43.6486   12.7352    8.8486 C   0  0  0  0  0  0
   43.5955   13.8994    9.7917 C   0  0  0  0  0  0
   43.6495   11.4275    9.3557 C   0  0  0  0  0  0
   43.7934   10.3388    8.4973 C   0  0  0  0  0  0
   41.6954   12.4051    4.1939 H   0  0  0  0  0  0
  1  2  1  0  0  0
  2  3  1  0  0  0
  3  8  2  0  0  0
  3  4  1  0  0  0
  4  5  2  0  0  0
  5  6  1  0  0  0
  6  7  2  0  0  0
  6 11  1  0  0  0
  7  8  1  0  0  0
  8  9  1  0  0  0
  9 10  1  0  0  0
 11 12  1  0  0  0
 11 23  1  0  0  0
 12 13  1  0  0  0
 13 14  2  0  0  0
 13 15  1  0  0  0
 15 16  1  0  0  0
 15 33  1  0  0  0
 16 17  1  0  0  0
 16 20  1  0  0  0
 17 18  1  0  0  0
 17 19  1  0  0  0
 20 21  1  0  0  0
 20 22  1  0  0  0
 23 24  2  0  0  0
 23 25  2  0  0  0
 23 26  1  0  0  0
 26 32  2  0  0  0
 26 27  1  0  0  0
 27 28  2  0  0  0
 28 29  1  0  0  0
 29 30  1  0  0  0
 29 31  2  0  0  0
 31 32  1  0  0  0
M  END
>  <CHROM.1>
68.44035167,-45.34461205,28.03171392,-124.15568126,0.50181557,24.98374397
137.79567649,-169.69312383,-70.12257931,-84.81022329,42.58408186,9.59083858
5.26818491,1.84870662,1.11213229,2.58444349

>  <Name>
FXR_1

>  <RI>
1.65995e+07

>  <Rbt.Current_Directory>
/home/nvk/Dropbox/D3_challenge/ivan/test-docking/src/rdock

>  <Rbt.Executable>
rbdock ($Id: //depot/dev/client3/rdock/2013.1/src/exe/rbdock.cxx#4 $)

>  <Rbt.Library>
libRbt.so (2013.1, Build901 2013/11/27)

>  <Rbt.Parameter_File>
/home/nvk/Dropbox/D3_challenge/ivan/test-docking/rDock_2013.1_src/data/scripts/dock.prm

>  <Rbt.Receptor>
rdock_input.prm

>  <SCORE>
16.694

>  <SCORE.INTER>
17.2953

>  <SCORE.INTER.CONST>
1

>  <SCORE.INTER.POLAR>
0

>  <SCORE.INTER.REPUL>
0.0235101

>  <SCORE.INTER.ROT>
10

>  <SCORE.INTER.VDW>
1.77775

>  <SCORE.INTER.norm>
0.540478

>  <SCORE.INTRA>
-0.606559

>  <SCORE.INTRA.DIHEDRAL>
3.56302

>  <SCORE.INTRA.DIHEDRAL.0>
9.43705

>  <SCORE.INTRA.POLAR>
0

>  <SCORE.INTRA.POLAR.0>
0

>  <SCORE.INTRA.REPUL>
0

>  <SCORE.INTRA.REPUL.0>
0

>  <SCORE.INTRA.VDW>
-2.38807

>  <SCORE.INTRA.VDW.0>
0.0605502

>  <SCORE.INTRA.norm>
-0.018955

>  <SCORE.RESTR>
0.00528683

>  <SCORE.RESTR.CAVITY>
0.00528683

>  <SCORE.RESTR.norm>
0.000165213

>  <SCORE.SYSTEM>
0

>  <SCORE.SYSTEM.CONST>
0

>  <SCORE.SYSTEM.DIHEDRAL>
0

>  <SCORE.SYSTEM.norm>
0

>  <SCORE.heavy>
32

>  <SCORE.norm>
0.521688

$$$$
FXR_1
  rDOCK(R)          3D
libRbt.so/2013.1/901 2013/11/27
 33 34  0  0  0  0  0  0  0  0999 V2000
   42.1546    4.8471    6.8775 C   0  0  0  0  0  0
   42.4039    5.6127    5.6994 O   0  0  0  0  0  0
   42.4812    6.9678    5.8842 C   0  0  0  0  0  0
   41.3562    7.7909    5.7234 C   0  0  0  0  0  0
   41.4565    9.1760    5.8396 C   0  0  0  0  0  0
   42.6820    9.7531    6.1509 C   0  0  0  0  0  0
   43.7826    8.9421    6.4072 C   0  0  0  0  0  0
   43.6986    7.5466    6.2789 C   0  0  0  0  0  0
   44.8943    6.9377    6.5490 O   0  0  0  0  0  0
   45.3928    5.9590    5.6516 C   0  0  0  0  0  0
   42.8193   11.1753    6.2007 N   0  0  0  0  0  0
   43.8972   11.8377    5.4355 C   0  0  0  0  0  0
   43.7951   11.7759    3.9128 C   0  0  0  0  0  0
   44.7793   11.4932    3.2302 O   0  0  0  0  0  0
   42.5842   12.1352    3.3510 N   0  0  0  0  0  0
   42.2815   12.0967    1.9006 C   0  0  0  0  0  0
   40.8352   11.5371    1.6212 C   0  0  0  0  0  0
   40.6508   10.0884    2.1038 C   0  0  0  0  0  0
   39.7188   12.3713    2.2624 C   0  0  0  0  0  0
   42.5012   13.5082    1.2448 C   0  0  0  0  0  0
   42.3444   13.5039   -0.2768 C   0  0  0  0  0  0
   41.5973   14.5964    1.8386 C   0  0  0  0  0  0
   41.4487   12.0639    6.6754 S   0  0  0  0  0  0
   41.1637   13.0844    5.6804 O   0  0  0  0  0  0
   40.4032   11.1641    7.1286 O   0  0  0  0  0  0
   42.0894   12.9000    8.1050 C   0  0  0  0  0  0
   42.3997   14.2560    8.0136 C   0  0  0  0  0  0
   43.0300   14.8854    9.0846 C   0  0  0  0  0  0
   43.3437   14.1626   10.2435 C   0  0  0  0  0  0
   44.1158   14.8034   11.3575 C   0  0  0  0  0  0
   42.9513   12.8203   10.3501 C   0  0  0  0  0  0
   42.3161   12.1849    9.2844 C   0  0  0  0  0  0
   41.9502   12.6492    3.9480 H   0  0  0  0  0  0
  1  2  1  0  0  0
  2  3  1  0  0  0
  3  8  2  0  0  0
  3  4  1  0  0  0
  4  5  2  0  0  0
  5  6  1  0  0  0
  6  7  2  0  0  0
  6 11  1  0  0  0
  7  8  1  0  0  0
  8  9  1  0  0  0
  9 10  1  0  0  0
 11 12  1  0  0  0
 11 23  1  0  0  0
 12 13  1  0  0  0
 13 14  2  0  0  0
 13 15  1  0  0  0
 15 16  1  0  0  0
 15 33  1  0  0  0
 16 17  1  0  0  0
 16 20  1  0  0  0
 17 18  1  0  0  0
 17 19  1  0  0  0
 20 21  1  0  0  0
 20 22  1  0  0  0
 23 24  2  0  0  0
 23 25  2  0  0  0
 23 26  1  0  0  0
 26 32  2  0  0  0
 26 27  1  0  0  0
 27 28  2  0  0  0
 28 29  1  0  0  0
 29 30  1  0  0  0
 29 31  2  0  0  0
 31 32  1  0  0  0
M  END
>  <CHROM.1>
-93.43573446,-128.05740221,46.64814378,66.83317333,-126.90183087,-134.45781843
138.61575056,-61.98277308,174.08961272,105.03816106,42.49195918,11.01083329
5.59969976,0.20705422,1.37240853,-2.50436415

>  <Name>
FXR_1

>  <RI>
1.65995e+07

>  <Rbt.Current_Directory>
/home/nvk/Dropbox/D3_challenge/ivan/test-docking/src/rdock

>  <Rbt.Executable>
rbdock ($Id: //depot/dev/client3/rdock/2013.1/src/exe/rbdock.cxx#4 $)

>  <Rbt.Library>
libRbt.so (2013.1, Build901 2013/11/27)

>  <Rbt.Parameter_File>
/home/nvk/Dropbox/D3_challenge/ivan/test-docking/rDock_2013.1_src/data/scripts/dock.prm

>  <Rbt.Receptor>
rdock_input.prm

>  <SCORE>
16.9243

>  <SCORE.INTER>
17.5609

>  <SCORE.INTER.CONST>
1

>  <SCORE.INTER.POLAR>
0

>  <SCORE.INTER.REPUL>
0.000399551

>  <SCORE.INTER.ROT>
10

>  <SCORE.INTER.VDW>
2.15892

>  <SCORE.INTER.norm>
0.548779

>  <SCORE.INTRA>
-0.636611

>  <SCORE.INTRA.DIHEDRAL>
4.37311

>  <SCORE.INTRA.DIHEDRAL.0>
9.43705

>  <SCORE.INTRA.POLAR>
-0.795915

>  <SCORE.INTRA.POLAR.0>
0

>  <SCORE.INTRA.REPUL>
0

>  <SCORE.INTRA.REPUL.0>
0

>  <SCORE.INTRA.VDW>
-0.117054

>  <SCORE.INTRA.VDW.0>
0.0605502

>  <SCORE.INTRA.norm>
-0.0198941

>  <SCORE.RESTR>
0

>  <SCORE.RESTR.CAVITY>
0

>  <SCORE.RESTR.norm>
0

>  <SCORE.SYSTEM>
0

>  <SCORE.SYSTEM.CONST>
0

>  <SCORE.SYSTEM.DIHEDRAL>
0

>  <SCORE.SYSTEM.norm>
0

>  <SCORE.heavy>
32

>  <SCORE.norm>
0.528884

$$$$
FXR_1
  rDOCK(R)          3D
libRbt.so/2013.1/901 2013/11/27
 33 34  0  0  0  0  0  0  0  0999 V2000
   40.8333    6.5724    6.8450 C   0  0  0  0  0  0
   42.0388    6.6554    6.0859 O   0  0  0  0  0  0
   42.3243    7.8915    5.5692 C   0  0  0  0  0  0
   41.3245    8.6889    4.9916 C   0  0  0  0  0  0
   41.6332    9.9129    4.4010 C   0  0  0  0  0  0
   42.9459   10.3694    4.4104 C   0  0  0  0  0  0
   43.9288    9.6336    5.0641 C   0  0  0  0  0  0
   43.6341    8.3923    5.6497 C   0  0  0  0  0  0
   44.7413    7.8210    6.2165 O   0  0  0  0  0  0
   45.0078    6.4471    5.9864 C   0  0  0  0  0  0
   43.2927   11.5862    3.7447 N   0  0  0  0  0  0
   43.0060   12.8853    4.3900 C   0  0  0  0  0  0
   42.5984   12.8452    5.8614 C   0  0  0  0  0  0
   41.5460   13.3632    6.2340 O   0  0  0  0  0  0
   43.5008   12.2855    6.7465 N   0  0  0  0  0  0
   43.2653   12.1186    8.2002 C   0  0  0  0  0  0
   43.4662   13.4714    8.9829 C   0  0  0  0  0  0
   44.8438   14.1080    8.7331 C   0  0  0  0  0  0
   42.4115   14.5352    8.6524 C   0  0  0  0  0  0
   41.8502   11.4895    8.4698 C   0  0  0  0  0  0
   41.4291   10.4635    7.4162 C   0  0  0  0  0  0
   41.7265   10.8575    9.8622 C   0  0  0  0  0  0
   44.4806   11.4872    2.5313 S   0  0  0  0  0  0
   45.6000   12.3477    2.8769 O   0  0  0  0  0  0
   44.7033   10.1005    2.1631 O   0  0  0  0  0  0
   43.6264   12.2663    1.1836 C   0  0  0  0  0  0
   42.8587   11.4814    0.3246 C   0  0  0  0  0  0
   42.2992   12.0607   -0.8121 C   0  0  0  0  0  0
   42.5026   13.4201   -1.0851 C   0  0  0  0  0  0
   41.9947   14.0275   -2.3581 C   0  0  0  0  0  0
   43.2088   14.2126   -0.1683 C   0  0  0  0  0  0
   43.7677   13.6410    0.9735 C   0  0  0  0  0  0
   44.4490   12.1814    6.4109 H   0  0  0  0  0  0
  1  2  1  0  0  0
  2  3  1  0  0  0
  3  8  2  0  0  0
  3  4  1  0  0  0
  4  5  2  0  0  0
  5  6  1  0  0  0
  6  7  2  0  0  0
  6 11  1  0  0  0
  7  8  1  0  0  0
  8  9  1  0  0  0
  9 10  1  0  0  0
 11 12  1  0  0  0
 11 23  1  0  0  0
 12 13  1  0  0  0
 13 14  2  0  0  0
 13 15  1  0  0  0
 15 16  1  0  0  0
 15 33  1  0  0  0
 16 17  1  0  0  0
 16 20  1  0  0  0
 17 18  1  0  0  0
 17 19  1  0  0  0
 20 21  1  0  0  0
 20 22  1  0  0  0
 23 24  2  0  0  0
 23 25  2  0  0  0
 23 26  1  0  0  0
 26 32  2  0  0  0
 26 27  1  0  0  0
 27 28  2  0  0  0
 28 29  1  0  0  0
 29 30  1  0  0  0
 29 31  2  0  0  0
 31 32  1  0  0  0
M  END
>  <CHROM.1>
-42.07915374,78.97270374,44.04715457,11.64055215,-120.68149372,-124.82238890
-78.10940366,-54.89179986,35.45739136,-90.02683027,43.08898493,11.15525005
4.62082651,3.06004336,1.50430695,0.40835088

>  <Name>
FXR_1

>  <RI>
1.65995e+07

>  <Rbt.Current_Directory>
/home/nvk/Dropbox/D3_challenge/ivan/test-docking/src/rdock

>  <Rbt.Executable>
rbdock ($Id: //depot/dev/client3/rdock/2013.1/src/exe/rbdock.cxx#4 $)

>  <Rbt.Library>
libRbt.so (2013.1, Build901 2013/11/27)

>  <Rbt.Parameter_File>
/home/nvk/Dropbox/D3_challenge/ivan/test-docking/rDock_2013.1_src/data/scripts/dock.prm

>  <Rbt.Receptor>
rdock_input.prm

>  <SCORE>
7.3582

>  <SCORE.INTER>
5.3029

>  <SCORE.INTER.CONST>
1

>  <SCORE.INTER.POLAR>
0

>  <SCORE.INTER.REPUL>
0.00145709

>  <SCORE.INTER.ROT>
10

>  <SCORE.INTER.VDW>
-10.1044

>  <SCORE.INTER.norm>
0.165716

>  <SCORE.INTRA>
2.05529

>  <SCORE.INTRA.DIHEDRAL>
4.3848

>  <SCORE.INTRA.DIHEDRAL.0>
9.43705

>  <SCORE.INTRA.POLAR>
0

>  <SCORE.INTRA.POLAR.0>
0

>  <SCORE.INTRA.REPUL>
0

>  <SCORE.INTRA.REPUL.0>
0

>  <SCORE.INTRA.VDW>
-0.137105

>  <SCORE.INTRA.VDW.0>
0.0605502

>  <SCORE.INTRA.norm>
0.0642279

>  <SCORE.RESTR>
0

>  <SCORE.RESTR.CAVITY>
0

>  <SCORE.RESTR.norm>
0

>  <SCORE.SYSTEM>
0

>  <SCORE.SYSTEM.CONST>
0

>  <SCORE.SYSTEM.DIHEDRAL>
0

>  <SCORE.SYSTEM.norm>
0

>  <SCORE.heavy>
32

>  <SCORE.norm>
0.229944

$$$$
FXR_1
  rDOCK(R)          3D
libRbt.so/2013.1/901 2013/11/27
 33 34  0  0  0  0  0  0  0  0999 V2000
   41.8029    4.2423    8.0323 C   0  0  0  0  0  0
   41.9141    4.6506    6.6695 O   0  0  0  0  0  0
   42.0173    6.0015    6.4670 C   0  0  0  0  0  0
   40.8803    6.8233    6.4388 C   0  0  0  0  0  0
   40.9841    8.1845    6.1587 C   0  0  0  0  0  0
   42.2352    8.7470    5.9344 C   0  0  0  0  0  0
   43.3774    7.9623    6.0547 C   0  0  0  0  0  0
   43.2856    6.5871    6.3215 C   0  0  0  0  0  0
   44.5187    5.9954    6.3743 O   0  0  0  0  0  0
   45.2245    5.7539    5.1679 C   0  0  0  0  0  0
   42.3537   10.1251    5.5728 N   0  0  0  0  0  0
   41.4352   11.1223    6.1629 C   0  0  0  0  0  0
   41.8560   11.7380    7.4959 C   0  0  0  0  0  0
   41.4082   11.3021    8.5561 O   0  0  0  0  0  0
   42.6802   12.8465    7.4415 N   0  0  0  0  0  0
   43.2265   13.5516    8.6253 C   0  0  0  0  0  0
   42.1862   13.5981    9.8080 C   0  0  0  0  0  0
   42.7990   14.1064   11.1239 C   0  0  0  0  0  0
   40.9603   14.4721    9.5143 C   0  0  0  0  0  0
   44.5946   12.9194    9.0718 C   0  0  0  0  0  0
   44.4987   11.4281    9.3983 C   0  0  0  0  0  0
   45.7210   13.1381    8.0534 C   0  0  0  0  0  0
   43.8467   10.6255    4.9293 S   0  0  0  0  0  0
   44.3235   11.7891    5.6582 O   0  0  0  0  0  0
   44.7121    9.4776    4.7261 O   0  0  0  0  0  0
   43.3301   11.1940    3.3284 C   0  0  0  0  0  0
   42.3359   10.4917    2.6490 C   0  0  0  0  0  0
   42.0230   10.8476    1.3390 C   0  0  0  0  0  0
   42.6980   11.9046    0.7137 C   0  0  0  0  0  0
   42.4438   12.2262   -0.7283 C   0  0  0  0  0  0
   43.6373   12.6521    1.4390 C   0  0  0  0  0  0
   43.9524   12.3050    2.7517 C   0  0  0  0  0  0
   42.7354   13.3183    6.5489 H   0  0  0  0  0  0
  1  2  1  0  0  0
  2  3  1  0  0  0
  3  8  2  0  0  0
  3  4  1  0  0  0
  4  5  2  0  0  0
  5  6  1  0  0  0
  6  7  2  0  0  0
  6 11  1  0  0  0
  7  8  1  0  0  0
  8  9  1  0  0  0
  9 10  1  0  0  0
 11 12  1  0  0  0
 11 23  1  0  0  0
 12 13  1  0  0  0
 13 14  2  0  0  0
 13 15  1  0  0  0
 15 16  1  0  0  0
 15 33  1  0  0  0
 16 17  1  0  0  0
 16 20  1  0  0  0
 17 18  1  0  0  0
 17 19  1  0  0  0
 20 21  1  0  0  0
 20 22  1  0  0  0
 23 24  2  0  0  0
 23 25  2  0  0  0
 23 26  1  0  0  0
 26 32  2  0  0  0
 26 27  1  0  0  0
 27 28  2  0  0  0
 28 29  1  0  0  0
 29 30  1  0  0  0
 29 31  2  0  0  0
 31 32  1  0  0  0
M  END
>  <CHROM.1>
-82.60507545,36.43035658,103.53701542,87.57365226,-128.30125796,-97.65820129
-36.91020280,170.23461590,-57.67237544,-38.05423748,42.98014905,10.27768400
6.00112588,1.87025143,-1.50484255,-2.30884803

>  <Name>
FXR_1

>  <RI>
1.65995e+07

>  <Rbt.Current_Directory>
/home/nvk/Dropbox/D3_challenge/ivan/test-docking/src/rdock

>  <Rbt.Executable>
rbdock ($Id: //depot/dev/client3/rdock/2013.1/src/exe/rbdock.cxx#4 $)

>  <Rbt.Library>
libRbt.so (2013.1, Build901 2013/11/27)

>  <Rbt.Parameter_File>
/home/nvk/Dropbox/D3_challenge/ivan/test-docking/rDock_2013.1_src/data/scripts/dock.prm

>  <Rbt.Receptor>
rdock_input.prm

>  <SCORE>
46.769

>  <SCORE.INTER>
41.8804

>  <SCORE.INTER.CONST>
1

>  <SCORE.INTER.POLAR>
0

>  <SCORE.INTER.REPUL>
0

>  <SCORE.INTER.ROT>
10

>  <SCORE.INTER.VDW>
26.4804

>  <SCORE.INTER.norm>
1.30876

>  <SCORE.INTRA>
4.88866

>  <SCORE.INTRA.DIHEDRAL>
7.22799

>  <SCORE.INTRA.DIHEDRAL.0>
9.43705

>  <SCORE.INTRA.POLAR>
0

>  <SCORE.INTRA.POLAR.0>
0

>  <SCORE.INTRA.REPUL>
0

>  <SCORE.INTRA.REPUL.0>
0

>  <SCORE.INTRA.VDW>
1.27467

>  <SCORE.INTRA.VDW.0>
0.0605502

>  <SCORE.INTRA.norm>
0.152771

>  <SCORE.RESTR>
0

>  <SCORE.RESTR.CAVITY>
0

>  <SCORE.RESTR.norm>
0

>  <SCORE.SYSTEM>
0

>  <SCORE.SYSTEM.CONST>
0

>  <SCORE.SYSTEM.DIHEDRAL>
0

>  <SCORE.SYSTEM.norm>
0

>  <SCORE.heavy>
32

>  <SCORE.norm>
1.46153

$$$$
FXR_1
  rDOCK(R)          3D
libRbt.so/2013.1/901 2013/11/27
 33 34  0  0  0  0  0  0  0  0999 V2000
   43.4131   14.2221   10.3331 C   0  0  0  0  0  0
   43.2489   14.3538    8.9217 O   0  0  0  0  0  0
   43.3490   13.1895    8.2070 C   0  0  0  0  0  0
   44.5972   12.6687    7.8331 C   0  0  0  0  0  0
   44.6911   11.5246    7.0430 C   0  0  0  0  0  0
   43.5332   10.8679    6.6433 C   0  0  0  0  0  0
   42.2946   11.3189    7.0873 C   0  0  0  0  0  0
   42.1852   12.4785    7.8710 C   0  0  0  0  0  0
   40.8825   12.7638    8.1790 O   0  0  0  0  0  0
   40.3473   14.0290    7.8263 C   0  0  0  0  0  0
   43.6079    9.7369    5.7718 N   0  0  0  0  0  0
   43.5062    9.9272    4.3091 C   0  0  0  0  0  0
   42.4260   10.8879    3.8159 C   0  0  0  0  0  0
   41.2540   10.7435    4.1623 O   0  0  0  0  0  0
   42.8147   11.8540    2.9066 N   0  0  0  0  0  0
   41.9219   12.8982    2.3505 C   0  0  0  0  0  0
   41.8213   14.1483    3.3046 C   0  0  0  0  0  0
   40.3703   14.5881    3.5632 C   0  0  0  0  0  0
   42.4772   13.9306    4.6742 C   0  0  0  0  0  0
   42.3692   13.3026    0.8989 C   0  0  0  0  0  0
   42.6932   12.1041    0.0053 C   0  0  0  0  0  0
   41.3526   14.2012    0.1829 C   0  0  0  0  0  0
   44.3407    8.3338    6.3944 S   0  0  0  0  0  0
   45.4074    7.9076    5.5037 O   0  0  0  0  0  0
   44.5862    8.4884    7.8170 O   0  0  0  0  0  0
   43.0134    7.1695    6.2057 C   0  0  0  0  0  0
   41.7365    7.5226    6.6395 C   0  0  0  0  0  0
   40.7218    6.5682    6.6224 C   0  0  0  0  0  0
   40.9825    5.2682    6.1686 C   0  0  0  0  0  0
   39.9267    4.2065    6.2457 C   0  0  0  0  0  0
   42.2510    4.9535    5.6598 C   0  0  0  0  0  0
   43.2700    5.9044    5.6693 C   0  0  0  0  0  0
   43.7009   11.7011    2.4444 H   0  0  0  0  0  0
  1  2  1  0  0  0
  2  3  1  0  0  0
  3  8  2  0  0  0
  3  4  1  0  0  0
  4  5  2  0  0  0
  5  6  1  0  0  0
  6  7  2  0  0  0
  6 11  1  0  0  0
  7  8  1  0  0  0
  8  9  1  0  0  0
  9 10  1  0  0  0
 11 12  1  0  0  0
 11 23  1  0  0  0
 12 13  1  0  0  0
 13 14  2  0  0  0
 13 15  1  0  0  0
 15 16  1  0  0  0
 15 33  1  0  0  0
 16 17  1  0  0  0
 16 20  1  0  0  0
 17 18  1  0  0  0
 17 19  1  0  0  0
 20 21  1  0  0  0
 20 22  1  0  0  0
 23 24  2  0  0  0
 23 25  2  0  0  0
 23 26  1  0  0  0
 26 32  2  0  0  0
 26 27  1  0  0  0
 27 28  2  0  0  0
 28 29  1  0  0  0
 29 30  1  0  0  0
 29 31  2  0  0  0
 31 32  1  0  0  0
M  END
>  <CHROM.1>
-82.85175291,-92.25754235,55.17095191,-43.61040306,-125.88764914,-53.59667038
84.53288606,-131.10843265,45.35568499,-47.85456831,42.61013337,10.66229870
5.60992262,-1.95946290,1.39967561,-3.04168825

>  <Name>
FXR_1

>  <RI>
1.65995e+07

>  <Rbt.Current_Directory>
/home/nvk/Dropbox/D3_challenge/ivan/test-docking/src/rdock

>  <Rbt.Executable>
rbdock ($Id: //depot/dev/client3/rdock/2013.1/src/exe/rbdock.cxx#4 $)

>  <Rbt.Library>
libRbt.so (2013.1, Build901 2013/11/27)

>  <Rbt.Parameter_File>
/home/nvk/Dropbox/D3_challenge/ivan/test-docking/rDock_2013.1_src/data/scripts/dock.prm

>  <Rbt.Receptor>
rdock_input.prm

>  <SCORE>
22.3464

>  <SCORE.INTER>
20.8544

>  <SCORE.INTER.CONST>
1

>  <SCORE.INTER.POLAR>
0

>  <SCORE.INTER.REPUL>
0

>  <SCORE.INTER.ROT>
10

>  <SCORE.INTER.VDW>
5.45444

>  <SCORE.INTER.norm>
0.651701

>  <SCORE.INTRA>
1.30775

>  <SCORE.INTRA.DIHEDRAL>
11.3743

>  <SCORE.INTRA.DIHEDRAL.0>
9.43705

>  <SCORE.INTRA.POLAR>
0

>  <SCORE.INTRA.POLAR.0>
0

>  <SCORE.INTRA.REPUL>
0

>  <SCORE.INTRA.REPUL.0>
0

>  <SCORE.INTRA.VDW>
-4.37939

>  <SCORE.INTRA.VDW.0>
0.0605502

>  <SCORE.INTRA.norm>
0.0408672

>  <SCORE.RESTR>
0.184216

>  <SCORE.RESTR.CAVITY>
0.184216

>  <SCORE.RESTR.norm>
0.00575676

>  <SCORE.SYSTEM>
0

>  <SCORE.SYSTEM.CONST>
0

>  <SCORE.SYSTEM.DIHEDRAL>
0

>  <SCORE.SYSTEM.norm>
0

>  <SCORE.heavy>
32

>  <SCORE.norm>
0.698325

$$$$
FXR_1
  rDOCK(R)          3D
libRbt.so/2013.1/901 2013/11/27
 33 34  0  0  0  0  0  0  0  0999 V2000
   44.6644    6.0671    4.7687 C   0  0  0  0  0  0
   44.4235    6.6906    6.0295 O   0  0  0  0  0  0
   43.7114    7.8598    5.9807 C   0  0  0  0  0  0
   44.3552    9.1011    5.8634 C   0  0  0  0  0  0
   43.6310   10.2915    5.8890 C   0  0  0  0  0  0
   42.2462   10.2518    6.0006 C   0  0  0  0  0  0
   41.5893    9.0259    6.0207 C   0  0  0  0  0  0
   42.3077    7.8198    6.0106 C   0  0  0  0  0  0
   41.4779    6.7325    6.0614 O   0  0  0  0  0  0
   41.9981    5.4819    6.4820 C   0  0  0  0  0  0
   41.4944   11.4636    6.1033 N   0  0  0  0  0  0
   41.0210   12.1418    4.8777 C   0  0  0  0  0  0
   41.8704   11.9597    3.6214 C   0  0  0  0  0  0
   42.0104   10.8464    3.1161 O   0  0  0  0  0  0
   42.5322   13.0762    3.1454 N   0  0  0  0  0  0
   43.3646   13.1058    1.9194 C   0  0  0  0  0  0
   44.3808   11.9023    1.8751 C   0  0  0  0  0  0
   44.8651   11.4768    3.2715 C   0  0  0  0  0  0
   43.8199   10.6490    1.1912 C   0  0  0  0  0  0
   42.4642   13.1610    0.6322 C   0  0  0  0  0  0
   41.3831   14.2416    0.6910 C   0  0  0  0  0  0
   43.2712   13.3295   -0.6616 C   0  0  0  0  0  0
   40.7264   11.7682    7.5902 S   0  0  0  0  0  0
   39.5819   12.6383    7.3758 O   0  0  0  0  0  0
   40.5830   10.5331    8.3398 O   0  0  0  0  0  0
   41.9717   12.7417    8.3994 C   0  0  0  0  0  0
   41.7164   14.0874    8.6585 C   0  0  0  0  0  0
   42.7358   14.8899    9.1659 C   0  0  0  0  0  0
   44.0031   14.3471    9.4175 C   0  0  0  0  0  0
   45.1348   15.2241    9.8623 C   0  0  0  0  0  0
   44.2187   12.9743    9.2280 C   0  0  0  0  0  0
   43.2022   12.1640    8.7250 C   0  0  0  0  0  0
   42.6176   13.8522    3.7881 H   0  0  0  0  0  0
  1  2  1  0  0  0
  2  3  1  0  0  0
  3  8  2  0  0  0
  3  4  1  0  0  0
  4  5  2  0  0  0
  5  6  1  0  0  0
  6  7  2  0  0  0
  6 11  1  0  0  0
  7  8  1  0  0  0
  8  9  1  0  0  0
  9 10  1  0  0  0
 11 12  1  0  0  0
 11 23  1  0  0  0
 12 13  1  0  0  0
 13 14  2  0  0  0
 13 15  1  0  0  0
 15 16  1  0  0  0
 15 33  1  0  0  0
 16 17  1  0  0  0
 16 20  1  0  0  0
 17 18  1  0  0  0
 17 19  1  0  0  0
 20 21  1  0  0  0
 20 22  1  0  0  0
 23 24  2  0  0  0
 23 25  2  0  0  0
 23 26  1  0  0  0
 26 32  2  0  0  0
 26 27  1  0  0  0
 27 28  2  0  0  0
 28 29  1  0  0  0
 29 30  1  0  0  0
 29 31  2  0  0  0
 31 32  1  0  0  0
M  END
>  <CHROM.1>
-90.90137418,89.06886222,18.47688620,-29.28626204,-154.65099346,63.80544785
-48.15034362,-32.27524795,49.51427851,112.61819202,42.61443740,11.16703941
5.51926319,-0.47895679,-1.47127876,2.57186536

>  <Name>
FXR_1

>  <RI>
1.65995e+07

>  <Rbt.Current_Directory>
/home/nvk/Dropbox/D3_challenge/ivan/test-docking/src/rdock

>  <Rbt.Executable>
rbdock ($Id: //depot/dev/client3/rdock/2013.1/src/exe/rbdock.cxx#4 $)

>  <Rbt.Library>
libRbt.so (2013.1, Build901 2013/11/27)

>  <Rbt.Parameter_File>
/home/nvk/Dropbox/D3_challenge/ivan/test-docking/rDock_2013.1_src/data/scripts/dock.prm

>  <Rbt.Receptor>
rdock_input.prm

>  <SCORE>
45.0233

>  <SCORE.INTER>
38.8134

>  <SCORE.INTER.CONST>
1

>  <SCORE.INTER.POLAR>
0

>  <SCORE.INTER.REPUL>
0

>  <SCORE.INTER.ROT>
10

>  <SCORE.INTER.VDW>
23.4134

>  <SCORE.INTER.norm>
1.21292

>  <SCORE.INTRA>
6.14448

>  <SCORE.INTRA.DIHEDRAL>
5.65897

>  <SCORE.INTRA.DIHEDRAL.0>
9.43705

>  <SCORE.INTRA.POLAR>
0

>  <SCORE.INTRA.POLAR.0>
0

>  <SCORE.INTRA.REPUL>
0

>  <SCORE.INTRA.REPUL.0>
0

>  <SCORE.INTRA.VDW>
3.31499

>  <SCORE.INTRA.VDW.0>
0.0605502

>  <SCORE.INTRA.norm>
0.192015

>  <SCORE.RESTR>
0.0654229

>  <SCORE.RESTR.CAVITY>
0.0654229

>  <SCORE.RESTR.norm>
0.00204447

>  <SCORE.SYSTEM>
0

>  <SCORE.SYSTEM.CONST>
0

>  <SCORE.SYSTEM.DIHEDRAL>
0

>  <SCORE.SYSTEM.norm>
0

>  <SCORE.heavy>
32

>  <SCORE.norm>
1.40698

$$$$
FXR_1
  rDOCK(R)          3D
libRbt.so/2013.1/901 2013/11/27
 33 34  0  0  0  0  0  0  0  0999 V2000
   42.5078   13.2570   10.5225 C   0  0  0  0  0  0
   41.4266   13.6720    9.6889 O   0  0  0  0  0  0
   41.5948   13.4408    8.3492 C   0  0  0  0  0  0
   40.6526   12.7075    7.6120 C   0  0  0  0  0  0
   40.8649   12.4118    6.2668 C   0  0  0  0  0  0
   42.0117   12.8757    5.6333 C   0  0  0  0  0  0
   42.9056   13.6844    6.3275 C   0  0  0  0  0  0
   42.7111   13.9772    7.6866 C   0  0  0  0  0  0
   43.7136   14.7637    8.1865 O   0  0  0  0  0  0
   44.8849   14.1511    8.7007 C   0  0  0  0  0  0
   42.2816   12.5195    4.2753 N   0  0  0  0  0  0
   41.8189   13.3966    3.1786 C   0  0  0  0  0  0
   41.5157   12.7220    1.8422 C   0  0  0  0  0  0
   40.9054   11.6540    1.8041 O   0  0  0  0  0  0
   42.0322   13.3192    0.7075 N   0  0  0  0  0  0
   41.8087   12.8380   -0.6764 C   0  0  0  0  0  0
   41.2539   13.9807   -1.6089 C   0  0  0  0  0  0
   40.3749   14.9934   -0.8556 C   0  0  0  0  0  0
   42.3522   14.7798   -2.3219 C   0  0  0  0  0  0
   43.1144   12.1863   -1.2605 C   0  0  0  0  0  0
   43.6384   11.0176   -0.4243 C   0  0  0  0  0  0
   42.9614   11.7311   -2.7176 C   0  0  0  0  0  0
   43.5590   11.4290    4.0059 S   0  0  0  0  0  0
   43.5822   11.0457    2.6039 O   0  0  0  0  0  0
   44.7655   11.9023    4.6604 O   0  0  0  0  0  0
   42.9750   10.0213    4.9172 C   0  0  0  0  0  0
   43.9028    9.1649    5.5079 C   0  0  0  0  0  0
   43.4604    7.9867    6.1051 C   0  0  0  0  0  0
   42.0953    7.6697    6.1158 C   0  0  0  0  0  0
   41.6208    6.3561    6.6609 C   0  0  0  0  0  0
   41.1683    8.5812    5.5895 C   0  0  0  0  0  0
   41.6032    9.7642    4.9944 C   0  0  0  0  0  0
   42.7711   13.9936    0.8551 H   0  0  0  0  0  0
  1  2  1  0  0  0
  2  3  1  0  0  0
  3  8  2  0  0  0
  3  4  1  0  0  0
  4  5  2  0  0  0
  5  6  1  0  0  0
  6  7  2  0  0  0
  6 11  1  0  0  0
  7  8  1  0  0  0
  8  9  1  0  0  0
  9 10  1  0  0  0
 11 12  1  0  0  0
 11 23  1  0  0  0
 12 13  1  0  0  0
 13 14  2  0  0  0
 13 15  1  0  0  0
 15 16  1  0  0  0
 15 33  1  0  0  0
 16 17  1  0  0  0
 16 20  1  0  0  0
 17 18  1  0  0  0
 17 19  1  0  0  0
 20 21  1  0  0  0
 20 22  1  0  0  0
 23 24  2  0  0  0
 23 25  2  0  0  0
 23 26  1  0  0  0
 26 32  2  0  0  0
 26 27  1  0  0  0
 27 28  2  0  0  0
 28 29  1  0  0  0
 29 30  1  0  0  0
 29 31  2  0  0  0
 31 32  1  0  0  0
M  END
>  <CHROM.1>
124.82955675,92.01409327,91.06122888,-151.36094512,172.66318216,42.71188388
126.72965665,-31.61097946,57.86465581,-149.27643428,42.45088585,12.02018363
4.08492257,0.84782677,-1.51267597,0.94730674

>  <Name>
FXR_1

>  <RI>
1.65995e+07

>  <Rbt.Current_Directory>
/home/nvk/Dropbox/D3_challenge/ivan/test-docking/src/rdock

>  <Rbt.Executable>
rbdock ($Id: //depot/dev/client3/rdock/2013.1/src/exe/rbdock.cxx#4 $)

>  <Rbt.Library>
libRbt.so (2013.1, Build901 2013/11/27)

>  <Rbt.Parameter_File>
/home/nvk/Dropbox/D3_challenge/ivan/test-docking/rDock_2013.1_src/data/scripts/dock.prm

>  <Rbt.Receptor>
rdock_input.prm

>  <SCORE>
16.7438

>  <SCORE.INTER>
12.5497

>  <SCORE.INTER.CONST>
1

>  <SCORE.INTER.POLAR>
0

>  <SCORE.INTER.REPUL>
0

>  <SCORE.INTER.ROT>
10

>  <SCORE.INTER.VDW>
-2.85029

>  <SCORE.INTER.norm>
0.392178

>  <SCORE.INTRA>
4.1941

>  <SCORE.INTRA.DIHEDRAL>
7.26274

>  <SCORE.INTRA.DIHEDRAL.0>
9.43705

>  <SCORE.INTRA.POLAR>
0

>  <SCORE.INTRA.POLAR.0>
0

>  <SCORE.INTRA.REPUL>
0

>  <SCORE.INTRA.REPUL.0>
0

>  <SCORE.INTRA.VDW>
0.562732

>  <SCORE.INTRA.VDW.0>
0.0605502

>  <SCORE.INTRA.norm>
0.131066

>  <SCORE.RESTR>
0

>  <SCORE.RESTR.CAVITY>
0

>  <SCORE.RESTR.norm>
0

>  <SCORE.SYSTEM>
0

>  <SCORE.SYSTEM.CONST>
0

>  <SCORE.SYSTEM.DIHEDRAL>
0

>  <SCORE.SYSTEM.norm>
0

>  <SCORE.heavy>
32

>  <SCORE.norm>
0.523244

$$$$
FXR_1
  rDOCK(R)          3D
libRbt.so/2013.1/901 2013/11/27
 33 34  0  0  0  0  0  0  0  0999 V2000
   41.4291    4.1812    6.2697 C   0  0  0  0  0  0
   42.2940    4.9768    5.4602 O   0  0  0  0  0  0
   42.4723    6.2675    5.8828 C   0  0  0  0  0  0
   41.3923    7.0440    6.3297 C   0  0  0  0  0  0
   41.5668    8.3795    6.6879 C   0  0  0  0  0  0
   42.8348    8.9460    6.6335 C   0  0  0  0  0  0
   43.9284    8.1604    6.2847 C   0  0  0  0  0  0
   43.7642    6.8182    5.9072 C   0  0  0  0  0  0
   44.9565    6.2324    5.5778 O   0  0  0  0  0  0
   45.9823    6.1507    6.5538 C   0  0  0  0  0  0
   43.0198   10.3332    6.9258 N   0  0  0  0  0  0
   43.8883   11.1583    6.0592 C   0  0  0  0  0  0
   43.5276   11.2092    4.5759 C   0  0  0  0  0  0
   44.2263   10.6347    3.7415 O   0  0  0  0  0  0
   42.4466   11.9942    4.2206 N   0  0  0  0  0  0
   41.9207   12.1332    2.8419 C   0  0  0  0  0  0
   40.5093   11.4502    2.6843 C   0  0  0  0  0  0
   39.4727   12.3672    2.0134 C   0  0  0  0  0  0
   40.5445   10.1449    1.8793 C   0  0  0  0  0  0
   41.8947   13.6419    2.4017 C   0  0  0  0  0  0
   42.9288   14.5056    3.1260 C   0  0  0  0  0  0
   42.0556   13.8314    0.8878 C   0  0  0  0  0  0
   41.8382   11.0786    7.8961 S   0  0  0  0  0  0
   40.8938   11.7897    7.0503 O   0  0  0  0  0  0
   41.3669   10.1514    8.9092 O   0  0  0  0  0  0
   42.8253   12.3067    8.7150 C   0  0  0  0  0  0
   42.6983   12.4682   10.0937 C   0  0  0  0  0  0
   43.3640   13.5184   10.7219 C   0  0  0  0  0  0
   44.1571   14.3996    9.9747 C   0  0  0  0  0  0
   44.7909   15.5935   10.6233 C   0  0  0  0  0  0
   44.3389   14.1739    8.6024 C   0  0  0  0  0  0
   43.6798   13.1225    7.9677 C   0  0  0  0  0  0
   42.1383   12.6674    4.9093 H   0  0  0  0  0  0
  1  2  1  0  0  0
  2  3  1  0  0  0
  3  8  2  0  0  0
  3  4  1  0  0  0
  4  5  2  0  0  0
  5  6  1  0  0  0
  6  7  2  0  0  0
  6 11  1  0  0  0
  7  8  1  0  0  0
  8  9  1  0  0  0
  9 10  1  0  0  0
 11 12  1  0  0  0
 11 23  1  0  0  0
 12 13  1  0  0  0
 13 14  2  0  0  0
 13 15  1  0  0  0
 15 16  1  0  0  0
 15 33  1  0  0  0
 16 17  1  0  0  0
 16 20  1  0  0  0
 17 18  1  0  0  0
 17 19  1  0  0  0
 20 21  1  0  0  0
 20 22  1  0  0  0
 23 24  2  0  0  0
 23 25  2  0  0  0
 23 26  1  0  0  0
 26 32  2  0  0  0
 26 27  1  0  0  0
 27 28  2  0  0  0
 28 29  1  0  0  0
 29 30  1  0  0  0
 29 31  2  0  0  0
 31 32  1  0  0  0
M  END
>  <CHROM.1>
-43.30425746,-135.60470965,-120.77079118,57.16121421,-98.25748028,-108.33336445
110.63020201,130.59424583,26.16042524,-133.40374671,42.66993557,10.58658905
6.06212393,-1.73742333,-1.29133706,0.11124210

>  <Name>
FXR_1

>  <RI>
1.65995e+07

>  <Rbt.Current_Directory>
/home/nvk/Dropbox/D3_challenge/ivan/test-docking/src/rdock

>  <Rbt.Executable>
rbdock ($Id: //depot/dev/client3/rdock/2013.1/src/exe/rbdock.cxx#4 $)

>  <Rbt.Library>
libRbt.so (2013.1, Build901 2013/11/27)

>  <Rbt.Parameter_File>
/home/nvk/Dropbox/D3_challenge/ivan/test-docking/rDock_2013.1_src/data/scripts/dock.prm

>  <Rbt.Receptor>
rdock_input.prm

>  <SCORE>
41.3855

>  <SCORE.INTER>
29.2864

>  <SCORE.INTER.CONST>
1

>  <SCORE.INTER.POLAR>
0

>  <SCORE.INTER.REPUL>
0

>  <SCORE.INTER.ROT>
10

>  <SCORE.INTER.VDW>
13.8864

>  <SCORE.INTER.norm>
0.915199

>  <SCORE.INTRA>
12.0597

>  <SCORE.INTRA.DIHEDRAL>
11.6865

>  <SCORE.INTRA.DIHEDRAL.0>
9.43705

>  <SCORE.INTRA.POLAR>
0

>  <SCORE.INTRA.POLAR.0>
0

>  <SCORE.INTRA.REPUL>
0

>  <SCORE.INTRA.REPUL.0>
0

>  <SCORE.INTRA.VDW>
6.21649

>  <SCORE.INTRA.VDW.0>
0.0605502

>  <SCORE.INTRA.norm>
0.376866

>  <SCORE.RESTR>
0.0393804

>  <SCORE.RESTR.CAVITY>
0.0393804

>  <SCORE.RESTR.norm>
0.00123064

>  <SCORE.SYSTEM>
0

>  <SCORE.SYSTEM.CONST>
0

>  <SCORE.SYSTEM.DIHEDRAL>
0

>  <SCORE.SYSTEM.norm>
0

>  <SCORE.heavy>
32

>  <SCORE.norm>
1.2933

$$$$
FXR_1
  rDOCK(R)          3D
libRbt.so/2013.1/901 2013/11/27
 33 34  0  0  0  0  0  0  0  0999 V2000
   44.5953    7.2109    6.0812 C   0  0  0  0  0  0
   44.4133    8.5033    6.6583 O   0  0  0  0  0  0
   43.7047    9.3934    5.8953 C   0  0  0  0  0  0
   44.3242   10.1385    4.8803 C   0  0  0  0  0  0
   43.6155   11.0960    4.1571 C   0  0  0  0  0  0
   42.2658   11.2970    4.4206 C   0  0  0  0  0  0
   41.6179   10.4981    5.3571 C   0  0  0  0  0  0
   42.3234    9.5405    6.1028 C   0  0  0  0  0  0
   41.5099    8.8818    6.9848 O   0  0  0  0  0  0
   41.0719    7.5685    6.6765 C   0  0  0  0  0  0
   41.5420   12.3256    3.7407 N   0  0  0  0  0  0
   40.6656   11.9786    2.6016 C   0  0  0  0  0  0
   41.3328   11.8665    1.2322 C   0  0  0  0  0  0
   41.9218   10.8366    0.9050 O   0  0  0  0  0  0
   41.3159   12.9943    0.4329 N   0  0  0  0  0  0
   41.8712   13.0651   -0.9395 C   0  0  0  0  0  0
   41.5326   14.4376   -1.6357 C   0  0  0  0  0  0
   41.7755   14.4140   -3.1542 C   0  0  0  0  0  0
   40.0852   14.8967   -1.4178 C   0  0  0  0  0  0
   43.4161   12.7754   -0.9343 C   0  0  0  0  0  0
   44.1202   13.2479    0.3388 C   0  0  0  0  0  0
   43.7536   11.2982   -1.1748 C   0  0  0  0  0  0
   41.2939   13.7796    4.5879 S   0  0  0  0  0  0
   42.1670   14.8096    4.0498 O   0  0  0  0  0  0
   39.8722   14.0279    4.7471 O   0  0  0  0  0  0
   41.9394   13.3351    6.1813 C   0  0  0  0  0  0
   41.0514   13.1010    7.2300 C   0  0  0  0  0  0
   41.5513   12.8881    8.5128 C   0  0  0  0  0  0
   42.9334   12.9043    8.7439 C   0  0  0  0  0  0
   43.4762   12.7822   10.1361 C   0  0  0  0  0  0
   43.8145   13.0600    7.6639 C   0  0  0  0  0  0
   43.3219   13.2689    6.3768 C   0  0  0  0  0  0
   41.1012   13.8668    0.8966 H   0  0  0  0  0  0
  1  2  1  0  0  0
  2  3  1  0  0  0
  3  8  2  0  0  0
  3  4  1  0  0  0
  4  5  2  0  0  0
  5  6  1  0  0  0
  6  7  2  0  0  0
  6 11  1  0  0  0
  7  8  1  0  0  0
  8  9  1  0  0  0
  9 10  1  0  0  0
 11 12  1  0  0  0
 11 23  1  0  0  0
 12 13  1  0  0  0
 13 14  2  0  0  0
 13 15  1  0  0  0
 15 16  1  0  0  0
 15 33  1  0  0  0
 16 17  1  0  0  0
 16 20  1  0  0  0
 17 18  1  0  0  0
 17 19  1  0  0  0
 20 21  1  0  0  0
 20 22  1  0  0  0
 23 24  2  0  0  0
 23 25  2  0  0  0
 23 26  1  0  0  0
 26 32  2  0  0  0
 26 27  1  0  0  0
 27 28  2  0  0  0
 28 29  1  0  0  0
 29 30  1  0  0  0
 29 31  2  0  0  0
 31 32  1  0  0  0
M  END
>  <CHROM.1>
-83.23611715,101.10222551,-78.67329924,-84.73933850,105.94018690,81.70162539
172.98814779,-165.53141005,-32.18579180,-105.97902227,42.26562239,12.00782054
3.89117278,-1.26410511,1.22603471,-1.54728768

>  <Name>
FXR_1

>  <RI>
1.65995e+07

>  <Rbt.Current_Directory>
/home/nvk/Dropbox/D3_challenge/ivan/test-docking/src/rdock

>  <Rbt.Executable>
rbdock ($Id: //depot/dev/client3/rdock/2013.1/src/exe/rbdock.cxx#4 $)

>  <Rbt.Library>
libRbt.so (2013.1, Build901 2013/11/27)

>  <Rbt.Parameter_File>
/home/nvk/Dropbox/D3_challenge/ivan/test-docking/rDock_2013.1_src/data/scripts/dock.prm

>  <Rbt.Receptor>
rdock_input.prm

>  <SCORE>
16.0738

>  <SCORE.INTER>
14.2959

>  <SCORE.INTER.CONST>
1

>  <SCORE.INTER.POLAR>
0

>  <SCORE.INTER.REPUL>
0.464866

>  <SCORE.INTER.ROT>
10

>  <SCORE.INTER.VDW>
-3.42845

>  <SCORE.INTER.norm>
0.446746

>  <SCORE.INTRA>
1.74522

>  <SCORE.INTRA.DIHEDRAL>
10.6871

>  <SCORE.INTRA.DIHEDRAL.0>
9.43705

>  <SCORE.INTRA.POLAR>
0

>  <SCORE.INTRA.POLAR.0>
0

>  <SCORE.INTRA.REPUL>
0

>  <SCORE.INTRA.REPUL.0>
0

>  <SCORE.INTRA.VDW>
-3.59831

>  <SCORE.INTRA.VDW.0>
0.0605502

>  <SCORE.INTRA.norm>
0.0545382

>  <SCORE.RESTR>
0.0327155

>  <SCORE.RESTR.CAVITY>
0.0327155

>  <SCORE.RESTR.norm>
0.00102236

>  <SCORE.SYSTEM>
0

>  <SCORE.SYSTEM.CONST>
0

>  <SCORE.SYSTEM.DIHEDRAL>
0

>  <SCORE.SYSTEM.norm>
0

>  <SCORE.heavy>
32

>  <SCORE.norm>
0.502307

$$$$
FXR_1
  rDOCK(R)          3D
libRbt.so/2013.1/901 2013/11/27
 33 34  0  0  0  0  0  0  0  0999 V2000
   44.0370   13.8644    1.1327 C   0  0  0  0  0  0
   43.0559   12.8282    1.1322 O   0  0  0  0  0  0
   43.0756   11.9994    2.2227 C   0  0  0  0  0  0
   44.2497   11.3386    2.6151 C   0  0  0  0  0  0
   44.2468   10.4394    3.6798 C   0  0  0  0  0  0
   43.0716   10.2147    4.3869 C   0  0  0  0  0  0
   41.9251   10.9353    4.0690 C   0  0  0  0  0  0
   41.9107   11.8328    2.9895 C   0  0  0  0  0  0
   40.6835   12.4175    2.8299 O   0  0  0  0  0  0
   39.6119   11.6496    2.3068 C   0  0  0  0  0  0
   43.0326    9.2412    5.4334 N   0  0  0  0  0  0
   44.2055    9.0620    6.3155 C   0  0  0  0  0  0
   44.1574    9.7632    7.6716 C   0  0  0  0  0  0
   44.4467    9.1551    8.7017 O   0  0  0  0  0  0
   43.6939   11.0655    7.6874 N   0  0  0  0  0  0
   43.6164   11.9198    8.8961 C   0  0  0  0  0  0
   44.2177   13.3531    8.6369 C   0  0  0  0  0  0
   43.4634   14.1296    7.5444 C   0  0  0  0  0  0
   44.2446   14.2435    9.8858 C   0  0  0  0  0  0
   42.1427   11.9911    9.4381 C   0  0  0  0  0  0
   41.1550   12.5964    8.4390 C   0  0  0  0  0  0
   41.6078   10.6335    9.9116 C   0  0  0  0  0  0
   41.4950    8.7350    5.9556 S   0  0  0  0  0  0
   41.2819    9.1669    7.3270 O   0  0  0  0  0  0
   40.5035    9.0147    4.9324 O   0  0  0  0  0  0
   41.7353    6.9761    5.9987 C   0  0  0  0  0  0
   42.8466    6.4289    5.3593 C   0  0  0  0  0  0
   42.9692    5.0442    5.2699 C   0  0  0  0  0  0
   41.9871    4.2110    5.8223 C   0  0  0  0  0  0
   42.0555    2.7246    5.6390 C   0  0  0  0  0  0
   40.9182    4.7768    6.5326 C   0  0  0  0  0  0
   40.7913    6.1614    6.6303 C   0  0  0  0  0  0
   43.1877   11.3691    6.8664 H   0  0  0  0  0  0
  1  2  1  0  0  0
  2  3  1  0  0  0
  3  8  2  0  0  0
  3  4  1  0  0  0
  4  5  2  0  0  0
  5  6  1  0  0  0
  6  7  2  0  0  0
  6 11  1  0  0  0
  7  8  1  0  0  0
  8  9  1  0  0  0
  9 10  1  0  0  0
 11 12  1  0  0  0
 11 23  1  0  0  0
 12 13  1  0  0  0
 13 14  2  0  0  0
 13 15  1  0  0  0
 15 16  1  0  0  0
 15 33  1  0  0  0
 16 17  1  0  0  0
 16 20  1  0  0  0
 17 18  1  0  0  0
 17 19  1  0  0  0
 20 21  1  0  0  0
 20 22  1  0  0  0
 23 24  2  0  0  0
 23 25  2  0  0  0
 23 26  1  0  0  0
 26 32  2  0  0  0
 26 27  1  0  0  0
 27 28  2  0  0  0
 28 29  1  0  0  0
 29 30  1  0  0  0
 29 31  2  0  0  0
 31 32  1  0  0  0
M  END
>  <CHROM.1>
-53.75161999,36.81765721,105.55069112,98.50527113,-113.95388911,132.26275891
132.54117996,61.63600744,-61.21658565,-14.65084223,42.51196383,9.96123929
5.81201311,0.69145263,-1.37427863,-0.98991733

>  <Name>
FXR_1

>  <RI>
1.65995e+07

>  <Rbt.Current_Directory>
/home/nvk/Dropbox/D3_challenge/ivan/test-docking/src/rdock

>  <Rbt.Executable>
rbdock ($Id: //depot/dev/client3/rdock/2013.1/src/exe/rbdock.cxx#4 $)

>  <Rbt.Library>
libRbt.so (2013.1, Build901 2013/11/27)

>  <Rbt.Parameter_File>
/home/nvk/Dropbox/D3_challenge/ivan/test-docking/rDock_2013.1_src/data/scripts/dock.prm

>  <Rbt.Receptor>
rdock_input.prm

>  <SCORE>
16.8766

>  <SCORE.INTER>
11.3757

>  <SCORE.INTER.CONST>
1

>  <SCORE.INTER.POLAR>
0

>  <SCORE.INTER.REPUL>
0.0786852

>  <SCORE.INTER.ROT>
10

>  <SCORE.INTER.VDW>
-4.4177

>  <SCORE.INTER.norm>
0.355491

>  <SCORE.INTRA>
5.48726

>  <SCORE.INTRA.DIHEDRAL>
4.52005

>  <SCORE.INTRA.DIHEDRAL.0>
9.43705

>  <SCORE.INTRA.POLAR>
0

>  <SCORE.INTRA.POLAR.0>
0

>  <SCORE.INTRA.REPUL>
0

>  <SCORE.INTRA.REPUL.0>
0

>  <SCORE.INTRA.VDW>
3.22723

>  <SCORE.INTRA.VDW.0>
0.0605502

>  <SCORE.INTRA.norm>
0.171477

>  <SCORE.RESTR>
0.0136169

>  <SCORE.RESTR.CAVITY>
0.0136169

>  <SCORE.RESTR.norm>
0.000425529

>  <SCORE.SYSTEM>
0

>  <SCORE.SYSTEM.CONST>
0

>  <SCORE.SYSTEM.DIHEDRAL>
0

>  <SCORE.SYSTEM.norm>
0

>  <SCORE.heavy>
32

>  <SCORE.norm>
0.527394

$$$$
FXR_1
  rDOCK(R)          3D
libRbt.so/2013.1/901 2013/11/27
 33 34  0  0  0  0  0  0  0  0999 V2000
   39.7705    8.7426   -0.0507 C   0  0  0  0  0  0
   39.2673    9.8776    0.6529 O   0  0  0  0  0  0
   39.9380   10.2015    1.8026 C   0  0  0  0  0  0
   39.4741    9.7840    3.0594 C   0  0  0  0  0  0
   40.1183   10.1785    4.2306 C   0  0  0  0  0  0
   41.2571   10.9718    4.1554 C   0  0  0  0  0  0
   41.7817   11.3119    2.9128 C   0  0  0  0  0  0
   41.1342   10.9337    1.7260 C   0  0  0  0  0  0
   41.7964   11.3882    0.6177 O   0  0  0  0  0  0
   41.8143   12.7794    0.3423 C   0  0  0  0  0  0
   41.8870   11.4468    5.3477 N   0  0  0  0  0  0
   42.3942   10.4818    6.3465 C   0  0  0  0  0  0
   42.8467    9.1219    5.8181 C   0  0  0  0  0  0
   43.6373    9.0469    4.8780 O   0  0  0  0  0  0
   42.2620    8.0041    6.3836 N   0  0  0  0  0  0
   42.6030    6.6046    6.0342 C   0  0  0  0  0  0
   44.1289    6.2974    6.2794 C   0  0  0  0  0  0
   44.7869    5.5581    5.1021 C   0  0  0  0  0  0
   44.9719    7.5495    6.5531 C   0  0  0  0  0  0
   41.6712    5.5941    6.7966 C   0  0  0  0  0  0
   40.1886    5.9651    6.7321 C   0  0  0  0  0  0
   41.8454    4.1431    6.3297 C   0  0  0  0  0  0
   42.5035   13.0318    5.3124 S   0  0  0  0  0  0
   43.8528   13.0155    4.7721 O   0  0  0  0  0  0
   41.5069   13.9429    4.7789 O   0  0  0  0  0  0
   42.6470   13.3576    7.0521 C   0  0  0  0  0  0
   43.9075   13.6080    7.5921 C   0  0  0  0  0  0
   44.0468   13.7272    8.9731 C   0  0  0  0  0  0
   42.9291   13.6017    9.8092 C   0  0  0  0  0  0
   43.0848   13.6225   11.3001 C   0  0  0  0  0  0
   41.6569   13.4312    9.2440 C   0  0  0  0  0  0
   41.5090   13.3156    7.8628 C   0  0  0  0  0  0
   41.4118    8.1619    6.9077 H   0  0  0  0  0  0
  1  2  1  0  0  0
  2  3  1  0  0  0
  3  8  2  0  0  0
  3  4  1  0  0  0
  4  5  2  0  0  0
  5  6  1  0  0  0
  6  7  2  0  0  0
  6 11  1  0  0  0
  7  8  1  0  0  0
  8  9  1  0  0  0
  9 10  1  0  0  0
 11 12  1  0  0  0
 11 23  1  0  0  0
 12 13  1  0  0  0
 13 14  2  0  0  0
 13 15  1  0  0  0
 15 16  1  0  0  0
 15 33  1  0  0  0
 16 17  1  0  0  0
 16 20  1  0  0  0
 17 18  1  0  0  0
 17 19  1  0  0  0
 20 21  1  0  0  0
 20 22  1  0  0  0
 23 24  2  0  0  0
 23 25  2  0  0  0
 23 26  1  0  0  0
 26 32  2  0  0  0
 26 27  1  0  0  0
 27 28  2  0  0  0
 28 29  1  0  0  0
 29 30  1  0  0  0
 29 31  2  0  0  0
 31 32  1  0  0  0
M  END
>  <CHROM.1>
-97.34143221,59.52814802,109.37805422,29.09314555,-86.21072417,50.97676950
58.47822523,-133.46598442,47.05544654,117.69756367,42.12505475,10.39828072
5.21479259,2.27460762,1.23483647,-3.05297827

>  <Name>
FXR_1

>  <RI>
1.65995e+07

>  <Rbt.Current_Directory>
/home/nvk/Dropbox/D3_challenge/ivan/test-docking/src/rdock

>  <Rbt.Executable>
rbdock ($Id: //depot/dev/client3/rdock/2013.1/src/exe/rbdock.cxx#4 $)

>  <Rbt.Library>
libRbt.so (2013.1, Build901 2013/11/27)

>  <Rbt.Parameter_File>
/home/nvk/Dropbox/D3_challenge/ivan/test-docking/rDock_2013.1_src/data/scripts/dock.prm

>  <Rbt.Receptor>
rdock_input.prm

>  <SCORE>
109.248

>  <SCORE.INTER>
99.0767

>  <SCORE.INTER.CONST>
1

>  <SCORE.INTER.POLAR>
0

>  <SCORE.INTER.REPUL>
0.731931

>  <SCORE.INTER.ROT>
10

>  <SCORE.INTER.VDW>
80.017

>  <SCORE.INTER.norm>
3.09615

>  <SCORE.INTRA>
9.83807

>  <SCORE.INTRA.DIHEDRAL>
11.7988

>  <SCORE.INTRA.DIHEDRAL.0>
9.43705

>  <SCORE.INTRA.POLAR>
0

>  <SCORE.INTRA.POLAR.0>
0

>  <SCORE.INTRA.REPUL>
0

>  <SCORE.INTRA.REPUL.0>
0

>  <SCORE.INTRA.VDW>
3.93865

>  <SCORE.INTRA.VDW.0>
0.0605502

>  <SCORE.INTRA.norm>
0.30744

>  <SCORE.RESTR>
0.333003

>  <SCORE.RESTR.CAVITY>
0.333003

>  <SCORE.RESTR.norm>
0.0104063

>  <SCORE.SYSTEM>
0

>  <SCORE.SYSTEM.CONST>
0

>  <SCORE.SYSTEM.DIHEDRAL>
0

>  <SCORE.SYSTEM.norm>
0

>  <SCORE.heavy>
32

>  <SCORE.norm>
3.41399

$$$$
FXR_1
  rDOCK(R)          3D
libRbt.so/2013.1/901 2013/11/27
 33 34  0  0  0  0  0  0  0  0999 V2000
   42.8127   11.8625   -1.2467 C   0  0  0  0  0  0
   41.9705   12.3953   -0.2253 O   0  0  0  0  0  0
   42.2434   11.9643    1.0460 C   0  0  0  0  0  0
   41.7783   10.7249    1.5113 C   0  0  0  0  0  0
   41.9952   10.3241    2.8283 C   0  0  0  0  0  0
   42.7106   11.1483    3.6889 C   0  0  0  0  0  0
   43.2591   12.3347    3.2130 C   0  0  0  0  0  0
   43.0354   12.7569    1.8930 C   0  0  0  0  0  0
   43.6381   13.9581    1.6337 O   0  0  0  0  0  0
   44.1290   14.2207    0.3292 C   0  0  0  0  0  0
   42.8785   10.7874    5.0621 N   0  0  0  0  0  0
   41.6998   10.7062    5.9509 C   0  0  0  0  0  0
   41.9022   11.1437    7.4003 C   0  0  0  0  0  0
   41.1191   10.7829    8.2785 O   0  0  0  0  0  0
   42.9400   12.0219    7.6505 N   0  0  0  0  0  0
   43.3178   12.5222    8.9935 C   0  0  0  0  0  0
   44.7690   13.1362    9.0003 C   0  0  0  0  0  0
   45.6658   12.5640    7.8895 C   0  0  0  0  0  0
   44.7911   14.6633    8.8556 C   0  0  0  0  0  0
   42.2480   13.5393    9.5337 C   0  0  0  0  0  0
   41.0264   13.6790    8.6237 C   0  0  0  0  0  0
   41.7775   13.2197   10.9586 C   0  0  0  0  0  0
   44.3051    9.9554    5.4695 S   0  0  0  0  0  0
   45.1671    9.8700    4.3022 O   0  0  0  0  0  0
   44.8239   10.4442    6.7344 O   0  0  0  0  0  0
   43.6556    8.3272    5.7529 C   0  0  0  0  0  0
   44.5405    7.2566    5.8710 C   0  0  0  0  0  0
   44.0363    5.9607    5.9548 C   0  0  0  0  0  0
   42.6530    5.7377    5.9258 C   0  0  0  0  0  0
   42.1048    4.3424    5.9083 C   0  0  0  0  0  0
   41.7757    6.8314    5.8888 C   0  0  0  0  0  0
   42.2727    8.1312    5.8094 C   0  0  0  0  0  0
   43.3195   12.5049    6.8472 H   0  0  0  0  0  0
  1  2  1  0  0  0
  2  3  1  0  0  0
  3  8  2  0  0  0
  3  4  1  0  0  0
  4  5  2  0  0  0
  5  6  1  0  0  0
  6  7  2  0  0  0
  6 11  1  0  0  0
  7  8  1  0  0  0
  8  9  1  0  0  0
  9 10  1  0  0  0
 11 12  1  0  0  0
 11 23  1  0  0  0
 12 13  1  0  0  0
 13 14  2  0  0  0
 13 15  1  0  0  0
 15 16  1  0  0  0
 15 33  1  0  0  0
 16 17  1  0  0  0
 16 20  1  0  0  0
 17 18  1  0  0  0
 17 19  1  0  0  0
 20 21  1  0  0  0
 20 22  1  0  0  0
 23 24  2  0  0  0
 23 25  2  0  0  0
 23 26  1  0  0  0
 26 32  2  0  0  0
 26 27  1  0  0  0
 27 28  2  0  0  0
 28 29  1  0  0  0
 29 30  1  0  0  0
 29 31  2  0  0  0
 31 32  1  0  0  0
M  END
>  <CHROM.1>
-81.07497476,-64.49744101,-33.87378812,-144.52981841,4.99164409,-160.22932987
162.68738588,-25.04699972,5.11690183,167.94440382,43.10122578,10.88887349
5.33563835,-1.87313727,1.52511578,1.91769137

>  <Name>
FXR_1

>  <RI>
1.65995e+07

>  <Rbt.Current_Directory>
/home/nvk/Dropbox/D3_challenge/ivan/test-docking/src/rdock

>  <Rbt.Executable>
rbdock ($Id: //depot/dev/client3/rdock/2013.1/src/exe/rbdock.cxx#4 $)

>  <Rbt.Library>
libRbt.so (2013.1, Build901 2013/11/27)

>  <Rbt.Parameter_File>
/home/nvk/Dropbox/D3_challenge/ivan/test-docking/rDock_2013.1_src/data/scripts/dock.prm

>  <Rbt.Receptor>
rdock_input.prm

>  <SCORE>
29.4587

>  <SCORE.INTER>
13.7849

>  <SCORE.INTER.CONST>
1

>  <SCORE.INTER.POLAR>
0

>  <SCORE.INTER.REPUL>
0

>  <SCORE.INTER.ROT>
10

>  <SCORE.INTER.VDW>
-1.61507

>  <SCORE.INTER.norm>
0.430779

>  <SCORE.INTRA>
15.6738

>  <SCORE.INTRA.DIHEDRAL>
11.7296

>  <SCORE.INTRA.DIHEDRAL.0>
9.43705

>  <SCORE.INTRA.POLAR>
0

>  <SCORE.INTRA.POLAR.0>
0

>  <SCORE.INTRA.REPUL>
0

>  <SCORE.INTRA.REPUL.0>
0

>  <SCORE.INTRA.VDW>
9.80894

>  <SCORE.INTRA.VDW.0>
0.0605502

>  <SCORE.INTRA.norm>
0.489805

>  <SCORE.RESTR>
0

>  <SCORE.RESTR.CAVITY>
0

>  <SCORE.RESTR.norm>
0

>  <SCORE.SYSTEM>
0

>  <SCORE.SYSTEM.CONST>
0

>  <SCORE.SYSTEM.DIHEDRAL>
0

>  <SCORE.SYSTEM.norm>
0

>  <SCORE.heavy>
32

>  <SCORE.norm>
0.920584

$$$$
FXR_1
  rDOCK(R)          3D
libRbt.so/2013.1/901 2013/11/27
 33 34  0  0  0  0  0  0  0  0999 V2000
   42.6027   13.8703   10.3184 C   0  0  0  0  0  0
   41.8334   12.8917    9.6206 O   0  0  0  0  0  0
   41.9872   12.8841    8.2594 C   0  0  0  0  0  0
   40.8780   12.8521    7.4006 C   0  0  0  0  0  0
   41.0409   12.7694    6.0190 C   0  0  0  0  0  0
   42.3207   12.7502    5.4773 C   0  0  0  0  0  0
   43.4263   12.8785    6.3116 C   0  0  0  0  0  0
   43.2766   12.9474    7.7058 C   0  0  0  0  0  0
   44.4839   13.0441    8.3433 O   0  0  0  0  0  0
   45.4965   12.0926    8.0594 C   0  0  0  0  0  0
   42.5071   12.5909    4.0688 N   0  0  0  0  0  0
   42.1606   13.6972    3.1510 C   0  0  0  0  0  0
   41.7856   13.3108    1.7217 C   0  0  0  0  0  0
   40.7673   12.6573    1.4964 O   0  0  0  0  0  0
   42.6812   13.6511    0.7252 N   0  0  0  0  0  0
   42.4716   13.4001   -0.7205 C   0  0  0  0  0  0
   42.5711   11.8661   -1.0666 C   0  0  0  0  0  0
   42.7815   11.6039   -2.5674 C   0  0  0  0  0  0
   43.6970   11.1392   -0.3199 C   0  0  0  0  0  0
   41.1132   14.0242   -1.2062 C   0  0  0  0  0  0
   40.6119   15.1614   -0.3143 C   0  0  0  0  0  0
   41.1589   14.5108   -2.6604 C   0  0  0  0  0  0
   43.5996   11.3868    3.5691 S   0  0  0  0  0  0
   43.3137   11.0126    2.1940 O   0  0  0  0  0  0
   44.9493   11.7398    3.9713 O   0  0  0  0  0  0
   43.0746   10.0343    4.5929 C   0  0  0  0  0  0
   44.0367    9.2732    5.2549 C   0  0  0  0  0  0
   43.6446    8.1296    5.9470 C   0  0  0  0  0  0
   42.2953    7.7523    5.9807 C   0  0  0  0  0  0
   41.8777    6.4681    6.6319 C   0  0  0  0  0  0
   41.3311    8.5735    5.3782 C   0  0  0  0  0  0
   41.7154    9.7218    4.6879 C   0  0  0  0  0  0
   43.6155   13.8917    1.0279 H   0  0  0  0  0  0
  1  2  1  0  0  0
  2  3  1  0  0  0
  3  8  2  0  0  0
  3  4  1  0  0  0
  4  5  2  0  0  0
  5  6  1  0  0  0
  6  7  2  0  0  0
  6 11  1  0  0  0
  7  8  1  0  0  0
  8  9  1  0  0  0
  9 10  1  0  0  0
 11 12  1  0  0  0
 11 23  1  0  0  0
 12 13  1  0  0  0
 13 14  2  0  0  0
 13 15  1  0  0  0
 15 16  1  0  0  0
 15 33  1  0  0  0
 16 17  1  0  0  0
 16 20  1  0  0  0
 17 18  1  0  0  0
 17 19  1  0  0  0
 20 21  1  0  0  0
 20 22  1  0  0  0
 23 24  2  0  0  0
 23 25  2  0  0  0
 23 26  1  0  0  0
 26 32  2  0  0  0
 26 27  1  0  0  0
 27 28  2  0  0  0
 28 29  1  0  0  0
 29 30  1  0  0  0
 29 31  2  0  0  0
 31 32  1  0  0  0
M  END
>  <CHROM.1>
-132.17124144,71.63968116,125.77757710,-153.67415616,158.84906620,65.55432243
-70.77304166,-162.75413096,22.79282309,-134.52325741,42.61140091,11.91150388
3.94442409,0.96269864,-1.40071368,1.15112646

>  <Name>
FXR_1

>  <RI>
1.65995e+07

>  <Rbt.Current_Directory>
/home/nvk/Dropbox/D3_challenge/ivan/test-docking/src/rdock

>  <Rbt.Executable>
rbdock ($Id: //depot/dev/client3/rdock/2013.1/src/exe/rbdock.cxx#4 $)

>  <Rbt.Library>
libRbt.so (2013.1, Build901 2013/11/27)

>  <Rbt.Parameter_File>
/home/nvk/Dropbox/D3_challenge/ivan/test-docking/rDock_2013.1_src/data/scripts/dock.prm

>  <Rbt.Receptor>
rdock_input.prm

>  <SCORE>
28.9159

>  <SCORE.INTER>
22.0226

>  <SCORE.INTER.CONST>
1

>  <SCORE.INTER.POLAR>
0

>  <SCORE.INTER.REPUL>
0.322108

>  <SCORE.INTER.ROT>
10

>  <SCORE.INTER.VDW>
5.01208

>  <SCORE.INTER.norm>
0.688207

>  <SCORE.INTRA>
6.8933

>  <SCORE.INTRA.DIHEDRAL>
6.31049

>  <SCORE.INTRA.DIHEDRAL.0>
9.43705

>  <SCORE.INTRA.POLAR>
0

>  <SCORE.INTRA.POLAR.0>
0

>  <SCORE.INTRA.REPUL>
0

>  <SCORE.INTRA.REPUL.0>
0

>  <SCORE.INTRA.VDW>
3.73806

>  <SCORE.INTRA.VDW.0>
0.0605502

>  <SCORE.INTRA.norm>
0.215416

>  <SCORE.RESTR>
0

>  <SCORE.RESTR.CAVITY>
0

>  <SCORE.RESTR.norm>
0

>  <SCORE.SYSTEM>
0

>  <SCORE.SYSTEM.CONST>
0

>  <SCORE.SYSTEM.DIHEDRAL>
0

>  <SCORE.SYSTEM.norm>
0

>  <SCORE.heavy>
32

>  <SCORE.norm>
0.903623

$$$$
FXR_1
  rDOCK(R)          3D
libRbt.so/2013.1/901 2013/11/27
 33 34  0  0  0  0  0  0  0  0999 V2000
   40.7091   14.7636   -1.4793 C   0  0  0  0  0  0
   41.9859   14.4089   -0.9497 O   0  0  0  0  0  0
   41.9750   13.9079    0.3252 C   0  0  0  0  0  0
   40.7743   13.5530    0.9588 C   0  0  0  0  0  0
   40.7620   13.1141    2.2814 C   0  0  0  0  0  0
   41.9591   12.9944    2.9775 C   0  0  0  0  0  0
   43.1634   13.2510    2.3304 C   0  0  0  0  0  0
   43.1887   13.7080    1.0033 C   0  0  0  0  0  0
   44.4667   13.9244    0.5636 O   0  0  0  0  0  0
   45.3943   14.5721    1.4190 C   0  0  0  0  0  0
   41.9587   12.6174    4.3566 N   0  0  0  0  0  0
   41.7649   13.6462    5.4005 C   0  0  0  0  0  0
   42.7279   13.6109    6.5856 C   0  0  0  0  0  0
   43.8439   14.1227    6.5011 O   0  0  0  0  0  0
   42.3194   12.9084    7.7040 N   0  0  0  0  0  0
   43.0950   12.7988    8.9623 C   0  0  0  0  0  0
   42.5900   13.8213   10.0498 C   0  0  0  0  0  0
   41.6723   13.1729   11.1000 C   0  0  0  0  0  0
   43.7242   14.5188   10.8114 C   0  0  0  0  0  0
   43.0873   11.3211    9.4981 C   0  0  0  0  0  0
   41.7310   10.6284    9.3550 C   0  0  0  0  0  0
   44.1691   10.4418    8.8578 C   0  0  0  0  0  0
   41.6370   10.9842    4.7070 S   0  0  0  0  0  0
   41.1309   10.8700    6.0648 O   0  0  0  0  0  0
   40.9263   10.3674    3.6013 O   0  0  0  0  0  0
   43.2868   10.3277    4.7131 C   0  0  0  0  0  0
   44.2320   10.8640    3.8400 C   0  0  0  0  0  0
   45.4859   10.2654    3.7402 C   0  0  0  0  0  0
   45.7943    9.1386    4.5143 C   0  0  0  0  0  0
   47.1006    8.4247    4.3369 C   0  0  0  0  0  0
   44.8609    8.6620    5.4464 C   0  0  0  0  0  0
   43.6059    9.2586    5.5552 C   0  0  0  0  0  0
   41.5492   12.2668    7.5714 H   0  0  0  0  0  0
  1  2  1  0  0  0
  2  3  1  0  0  0
  3  8  2  0  0  0
  3  4  1  0  0  0
  4  5  2  0  0  0
  5  6  1  0  0  0
  6  7  2  0  0  0
  6 11  1  0  0  0
  7  8  1  0  0  0
  8  9  1  0  0  0
  9 10  1  0  0  0
 11 12  1  0  0  0
 11 23  1  0  0  0
 12 13  1  0  0  0
 13 14  2  0  0  0
 13 15  1  0  0  0
 15 16  1  0  0  0
 15 33  1  0  0  0
 16 17  1  0  0  0
 16 20  1  0  0  0
 17 18  1  0  0  0
 17 19  1  0  0  0
 20 21  1  0  0  0
 20 22  1  0  0  0
 23 24  2  0  0  0
 23 25  2  0  0  0
 23 26  1  0  0  0
 26 32  2  0  0  0
 26 27  1  0  0  0
 27 28  2  0  0  0
 28 29  1  0  0  0
 29 30  1  0  0  0
 29 31  2  0  0  0
 31 32  1  0  0  0
M  END
>  <CHROM.1>
10.79207017,-84.57109547,135.49568399,-133.23285943,-156.48281660,82.04936078
98.46562255,100.41443429,-40.49623364,-33.87266697,42.90585156,12.19285285
4.86489345,1.67546473,0.95916952,-1.47607581

>  <Name>
FXR_1

>  <RI>
1.65995e+07

>  <Rbt.Current_Directory>
/home/nvk/Dropbox/D3_challenge/ivan/test-docking/src/rdock

>  <Rbt.Executable>
rbdock ($Id: //depot/dev/client3/rdock/2013.1/src/exe/rbdock.cxx#4 $)

>  <Rbt.Library>
libRbt.so (2013.1, Build901 2013/11/27)

>  <Rbt.Parameter_File>
/home/nvk/Dropbox/D3_challenge/ivan/test-docking/rDock_2013.1_src/data/scripts/dock.prm

>  <Rbt.Receptor>
rdock_input.prm

>  <SCORE>
73.1415

>  <SCORE.INTER>
66.2221

>  <SCORE.INTER.CONST>
1

>  <SCORE.INTER.POLAR>
0

>  <SCORE.INTER.REPUL>
0

>  <SCORE.INTER.ROT>
10

>  <SCORE.INTER.VDW>
50.8221

>  <SCORE.INTER.norm>
2.06944

>  <SCORE.INTRA>
6.89155

>  <SCORE.INTRA.DIHEDRAL>
6.39615

>  <SCORE.INTRA.DIHEDRAL.0>
9.43705

>  <SCORE.INTRA.POLAR>
-0.6397

>  <SCORE.INTRA.POLAR.0>
0

>  <SCORE.INTRA.REPUL>
0

>  <SCORE.INTRA.REPUL.0>
0

>  <SCORE.INTRA.VDW>
5.86845

>  <SCORE.INTRA.VDW.0>
0.0605502

>  <SCORE.INTRA.norm>
0.215361

>  <SCORE.RESTR>
0.0278855

>  <SCORE.RESTR.CAVITY>
0.0278855

>  <SCORE.RESTR.norm>
0.000871421

>  <SCORE.SYSTEM>
0

>  <SCORE.SYSTEM.CONST>
0

>  <SCORE.SYSTEM.DIHEDRAL>
0

>  <SCORE.SYSTEM.norm>
0

>  <SCORE.heavy>
32

>  <SCORE.norm>
2.28567

$$$$
FXR_1
  rDOCK(R)          3D
libRbt.so/2013.1/901 2013/11/27
 33 34  0  0  0  0  0  0  0  0999 V2000
   42.5275   13.4362   10.1413 C   0  0  0  0  0  0
   41.9651   12.1291   10.0332 O   0  0  0  0  0  0
   42.4953   11.3407    9.0464 C   0  0  0  0  0  0
   43.7769   10.7825    9.1690 C   0  0  0  0  0  0
   44.3410   10.0430    8.1313 C   0  0  0  0  0  0
   43.6134    9.8257    6.9671 C   0  0  0  0  0  0
   42.3063   10.2918    6.8719 C   0  0  0  0  0  0
   41.7318   11.0507    7.9037 C   0  0  0  0  0  0
   40.4523   11.4327    7.6030 O   0  0  0  0  0  0
   40.2075   12.7631    7.1770 C   0  0  0  0  0  0
   44.2040    9.1333    5.8644 N   0  0  0  0  0  0
   44.7186    9.8962    4.7071 C   0  0  0  0  0  0
   43.6805   10.5833    3.8221 C   0  0  0  0  0  0
   42.5599   10.0957    3.6773 O   0  0  0  0  0  0
   44.0903   11.7114    3.1361 N   0  0  0  0  0  0
   43.2168   12.5351    2.2670 C   0  0  0  0  0  0
   42.3439   11.6436    1.3046 C   0  0  0  0  0  0
   40.9122   11.4281    1.8236 C   0  0  0  0  0  0
   42.2278   12.2063   -0.1178 C   0  0  0  0  0  0
   42.3328   13.5111    3.1253 C   0  0  0  0  0  0
   42.0573   12.9984    4.5399 C   0  0  0  0  0  0
   42.9095   14.9302    3.2101 C   0  0  0  0  0  0
   44.7739    7.5585    6.1616 S   0  0  0  0  0  0
   45.6205    7.1328    5.0593 O   0  0  0  0  0  0
   45.2377    7.4462    7.5329 O   0  0  0  0  0  0
   43.2589    6.6411    6.0342 C   0  0  0  0  0  0
   42.0933    7.1805    6.5762 C   0  0  0  0  0  0
   40.9332    6.4099    6.6034 C   0  0  0  0  0  0
   40.9381    5.1075    6.0859 C   0  0  0  0  0  0
   39.7259    4.2335    6.2063 C   0  0  0  0  0  0
   42.0967    4.6108    5.4711 C   0  0  0  0  0  0
   43.2600    5.3777    5.4360 C   0  0  0  0  0  0
   45.0891   11.8510    3.0629 H   0  0  0  0  0  0
  1  2  1  0  0  0
  2  3  1  0  0  0
  3  8  2  0  0  0
  3  4  1  0  0  0
  4  5  2  0  0  0
  5  6  1  0  0  0
  6  7  2  0  0  0
  6 11  1  0  0  0
  7  8  1  0  0  0
  8  9  1  0  0  0
  9 10  1  0  0  0
 11 12  1  0  0  0
 11 23  1  0  0  0
 12 13  1  0  0  0
 13 14  2  0  0  0
 13 15  1  0  0  0
 15 16  1  0  0  0
 15 33  1  0  0  0
 16 17  1  0  0  0
 16 20  1  0  0  0
 17 18  1  0  0  0
 17 19  1  0  0  0
 20 21  1  0  0  0
 20 22  1  0  0  0
 23 24  2  0  0  0
 23 25  2  0  0  0
 23 26  1  0  0  0
 26 32  2  0  0  0
 26 27  1  0  0  0
 27 28  2  0  0  0
 28 29  1  0  0  0
 29 30  1  0  0  0
 29 31  2  0  0  0
 31 32  1  0  0  0
M  END
>  <CHROM.1>
73.03087480,-100.87287162,76.06463688,-69.20578018,-166.14246070,-31.22833815
-45.64658702,98.66141701,-26.91416304,-40.09484814,42.78680208,9.83033239
5.67496647,2.22012294,1.47998118,-1.09057059

>  <Name>
FXR_1

>  <RI>
1.65995e+07

>  <Rbt.Current_Directory>
/home/nvk/Dropbox/D3_challenge/ivan/test-docking/src/rdock

>  <Rbt.Executable>
rbdock ($Id: //depot/dev/client3/rdock/2013.1/src/exe/rbdock.cxx#4 $)

>  <Rbt.Library>
libRbt.so (2013.1, Build901 2013/11/27)

>  <Rbt.Parameter_File>
/home/nvk/Dropbox/D3_challenge/ivan/test-docking/rDock_2013.1_src/data/scripts/dock.prm

>  <Rbt.Receptor>
rdock_input.prm

>  <SCORE>
23.6558

>  <SCORE.INTER>
15.8237

>  <SCORE.INTER.CONST>
1

>  <SCORE.INTER.POLAR>
0

>  <SCORE.INTER.REPUL>
0

>  <SCORE.INTER.ROT>
10

>  <SCORE.INTER.VDW>
0.423677

>  <SCORE.INTER.norm>
0.49449

>  <SCORE.INTRA>
7.3131

>  <SCORE.INTRA.DIHEDRAL>
14.1172

>  <SCORE.INTRA.DIHEDRAL.0>
9.43705

>  <SCORE.INTRA.POLAR>
0

>  <SCORE.INTRA.POLAR.0>
0

>  <SCORE.INTRA.REPUL>
0

>  <SCORE.INTRA.REPUL.0>
0

>  <SCORE.INTRA.VDW>
0.254522

>  <SCORE.INTRA.VDW.0>
0.0605502

>  <SCORE.INTRA.norm>
0.228534

>  <SCORE.RESTR>
0.519023

>  <SCORE.RESTR.CAVITY>
0.519023

>  <SCORE.RESTR.norm>
0.0162195

>  <SCORE.SYSTEM>
0

>  <SCORE.SYSTEM.CONST>
0

>  <SCORE.SYSTEM.DIHEDRAL>
0

>  <SCORE.SYSTEM.norm>
0

>  <SCORE.heavy>
32

>  <SCORE.norm>
0.739244

$$$$
FXR_1
  rDOCK(R)          3D
libRbt.so/2013.1/901 2013/11/27
 33 34  0  0  0  0  0  0  0  0999 V2000
   41.8920    6.3607    6.3597 C   0  0  0  0  0  0
   41.1984    7.4900    6.8887 O   0  0  0  0  0  0
   41.3174    8.6459    6.1633 C   0  0  0  0  0  0
   41.5556    8.6176    4.7808 C   0  0  0  0  0  0
   41.7499    9.7949    4.0607 C   0  0  0  0  0  0
   41.6758   11.0201    4.7128 C   0  0  0  0  0  0
   41.3453   11.0654    6.0632 C   0  0  0  0  0  0
   41.1619    9.8866    6.8032 C   0  0  0  0  0  0
   40.8696   10.1489    8.1143 O   0  0  0  0  0  0
   41.9158   10.5181    8.9979 C   0  0  0  0  0  0
   41.9458   12.2328    4.0054 N   0  0  0  0  0  0
   40.8331   12.9931    3.3971 C   0  0  0  0  0  0
   41.1949   13.9477    2.2610 C   0  0  0  0  0  0
   40.9717   15.1537    2.3614 O   0  0  0  0  0  0
   41.6937   13.3820    1.1024 N   0  0  0  0  0  0
   42.1397   14.1464   -0.0865 C   0  0  0  0  0  0
   43.6036   13.7533   -0.5173 C   0  0  0  0  0  0
   44.6292   13.9345    0.6146 C   0  0  0  0  0  0
   43.7310   12.3075   -1.0138 C   0  0  0  0  0  0
   41.1175   13.9882   -1.2700 C   0  0  0  0  0  0
   39.9272   14.9446   -1.1787 C   0  0  0  0  0  0
   41.7685   14.1290   -2.6521 C   0  0  0  0  0  0
   43.4152   13.0155    4.3541 S   0  0  0  0  0  0
   44.5151   12.0806    4.1841 O   0  0  0  0  0  0
   43.4502   14.3187    3.7150 O   0  0  0  0  0  0
   43.2285   13.2824    6.0997 C   0  0  0  0  0  0
   44.1601   12.7235    6.9733 C   0  0  0  0  0  0
   43.9454   12.8109    8.3470 C   0  0  0  0  0  0
   42.8066   13.4589    8.8441 C   0  0  0  0  0  0
   42.5127   13.4658   10.3142 C   0  0  0  0  0  0
   41.9225   14.0860    7.9540 C   0  0  0  0  0  0
   42.1331   14.0068    6.5784 C   0  0  0  0  0  0
   41.5449   12.3880    0.9911 H   0  0  0  0  0  0
  1  2  1  0  0  0
  2  3  1  0  0  0
  3  8  2  0  0  0
  3  4  1  0  0  0
  4  5  2  0  0  0
  5  6  1  0  0  0
  6  7  2  0  0  0
  6 11  1  0  0  0
  7  8  1  0  0  0
  8  9  1  0  0  0
  9 10  1  0  0  0
 11 12  1  0  0  0
 11 23  1  0  0  0
 12 13  1  0  0  0
 13 14  2  0  0  0
 13 15  1  0  0  0
 15 16  1  0  0  0
 15 33  1  0  0  0
 16 17  1  0  0  0
 16 20  1  0  0  0
 17 18  1  0  0  0
 17 19  1  0  0  0
 20 21  1  0  0  0
 20 22  1  0  0  0
 23 24  2  0  0  0
 23 25  2  0  0  0
 23 26  1  0  0  0
 26 32  2  0  0  0
 26 27  1  0  0  0
 27 28  2  0  0  0
 28 29  1  0  0  0
 29 30  1  0  0  0
 29 31  2  0  0  0
 31 32  1  0  0  0
M  END
>  <CHROM.1>
27.15258156,93.73861020,100.56476500,-158.16934934,53.88313996,-119.46538272
126.62580198,-56.46137810,83.19768871,120.30485279,42.25018220,12.27109808
4.24477332,1.60110536,1.32377392,1.92928723

>  <Name>
FXR_1

>  <RI>
1.65995e+07

>  <Rbt.Current_Directory>
/home/nvk/Dropbox/D3_challenge/ivan/test-docking/src/rdock

>  <Rbt.Executable>
rbdock ($Id: //depot/dev/client3/rdock/2013.1/src/exe/rbdock.cxx#4 $)

>  <Rbt.Library>
libRbt.so (2013.1, Build901 2013/11/27)

>  <Rbt.Parameter_File>
/home/nvk/Dropbox/D3_challenge/ivan/test-docking/rDock_2013.1_src/data/scripts/dock.prm

>  <Rbt.Receptor>
rdock_input.prm

>  <SCORE>
16.8962

>  <SCORE.INTER>
13.4152

>  <SCORE.INTER.CONST>
1

>  <SCORE.INTER.POLAR>
0

>  <SCORE.INTER.REPUL>
0.938083

>  <SCORE.INTER.ROT>
10

>  <SCORE.INTER.VDW>
-6.67526

>  <SCORE.INTER.norm>
0.419224

>  <SCORE.INTRA>
3.48106

>  <SCORE.INTRA.DIHEDRAL>
4.09633

>  <SCORE.INTRA.DIHEDRAL.0>
9.43705

>  <SCORE.INTRA.POLAR>
0

>  <SCORE.INTRA.POLAR.0>
0

>  <SCORE.INTRA.REPUL>
0

>  <SCORE.INTRA.REPUL.0>
0

>  <SCORE.INTRA.VDW>
1.4329

>  <SCORE.INTRA.VDW.0>
0.0605502

>  <SCORE.INTRA.norm>
0.108783

>  <SCORE.RESTR>
0

>  <SCORE.RESTR.CAVITY>
0

>  <SCORE.RESTR.norm>
0

>  <SCORE.SYSTEM>
0

>  <SCORE.SYSTEM.CONST>
0

>  <SCORE.SYSTEM.DIHEDRAL>
0

>  <SCORE.SYSTEM.norm>
0

>  <SCORE.heavy>
32

>  <SCORE.norm>
0.528007

$$$$
FXR_1
  rDOCK(R)          3D
libRbt.so/2013.1/901 2013/11/27
 33 34  0  0  0  0  0  0  0  0999 V2000
   42.3042    5.0491    4.3859 C   0  0  0  0  0  0
   42.9836    5.3552    5.6030 O   0  0  0  0  0  0
   42.8972    6.6595    6.0125 C   0  0  0  0  0  0
   41.6835    7.2049    6.4582 C   0  0  0  0  0  0
   41.5843    8.5515    6.8030 C   0  0  0  0  0  0
   42.7104    9.3633    6.7362 C   0  0  0  0  0  0
   43.9396    8.8128    6.3886 C   0  0  0  0  0  0
   44.0503    7.4615    6.0245 C   0  0  0  0  0  0
   45.3356    7.1269    5.6939 O   0  0  0  0  0  0
   45.9123    5.9560    6.2489 C   0  0  0  0  0  0
   42.6105   10.7621    7.0146 N   0  0  0  0  0  0
   43.0524   11.7468    6.0040 C   0  0  0  0  0  0
   42.2863   11.7643    4.6827 C   0  0  0  0  0  0
   41.1918   11.2101    4.5860 O   0  0  0  0  0  0
   42.9179   12.3474    3.6000 N   0  0  0  0  0  0
   42.3185   12.4975    2.2528 C   0  0  0  0  0  0
   42.7004   13.8775    1.5949 C   0  0  0  0  0  0
   41.6131   14.4087    0.6456 C   0  0  0  0  0  0
   42.9888   14.9861    2.6153 C   0  0  0  0  0  0
   42.7004   11.2827    1.3314 C   0  0  0  0  0  0
   41.7888   10.0682    1.5156 C   0  0  0  0  0  0
   42.7533   11.6483   -0.1577 C   0  0  0  0  0  0
   41.5131   11.2281    8.2278 S   0  0  0  0  0  0
   40.4140   11.9677    7.6296 O   0  0  0  0  0  0
   41.2517   10.1124    9.1193 O   0  0  0  0  0  0
   42.5023   12.4028    9.1193 C   0  0  0  0  0  0
   42.0127   12.9332   10.3118 C   0  0  0  0  0  0
   42.7175   13.9548   10.9444 C   0  0  0  0  0  0
   43.9093   14.4398   10.3889 C   0  0  0  0  0  0
   44.6181   15.6088   11.0041 C   0  0  0  0  0  0
   44.4293   13.8393    9.2330 C   0  0  0  0  0  0
   43.7322   12.8135    8.5970 C   0  0  0  0  0  0
   43.9160   12.4844    3.6863 H   0  0  0  0  0  0
  1  2  1  0  0  0
  2  3  1  0  0  0
  3  8  2  0  0  0
  3  4  1  0  0  0
  4  5  2  0  0  0
  5  6  1  0  0  0
  6  7  2  0  0  0
  6 11  1  0  0  0
  7  8  1  0  0  0
  8  9  1  0  0  0
  9 10  1  0  0  0
 11 12  1  0  0  0
 11 23  1  0  0  0
 12 13  1  0  0  0
 13 14  2  0  0  0
 13 15  1  0  0  0
 15 16  1  0  0  0
 15 33  1  0  0  0
 16 17  1  0  0  0
 16 20  1  0  0  0
 17 18  1  0  0  0
 17 19  1  0  0  0
 20 21  1  0  0  0
 20 22  1  0  0  0
 23 24  2  0  0  0
 23 25  2  0  0  0
 23 26  1  0  0  0
 26 32  2  0  0  0
 26 27  1  0  0  0
 27 28  2  0  0  0
 28 29  1  0  0  0
 29 30  1  0  0  0
 29 31  2  0  0  0
 31 32  1  0  0  0
M  END
>  <CHROM.1>
68.68342273,-123.43893844,-49.29872546,63.51930722,-112.34634260,15.69343977
141.34562881,-149.56533322,83.92324682,-173.06579331,42.73368101,10.84052975
5.97791697,-1.81999596,-1.46669253,0.82393686

>  <Name>
FXR_1

>  <RI>
1.65995e+07

>  <Rbt.Current_Directory>
/home/nvk/Dropbox/D3_challenge/ivan/test-docking/src/rdock

>  <Rbt.Executable>
rbdock ($Id: //depot/dev/client3/rdock/2013.1/src/exe/rbdock.cxx#4 $)

>  <Rbt.Library>
libRbt.so (2013.1, Build901 2013/11/27)

>  <Rbt.Parameter_File>
/home/nvk/Dropbox/D3_challenge/ivan/test-docking/rDock_2013.1_src/data/scripts/dock.prm

>  <Rbt.Receptor>
rdock_input.prm

>  <SCORE>
45.0688

>  <SCORE.INTER>
39.0061

>  <SCORE.INTER.CONST>
1

>  <SCORE.INTER.POLAR>
0

>  <SCORE.INTER.REPUL>
0

>  <SCORE.INTER.ROT>
10

>  <SCORE.INTER.VDW>
23.6061

>  <SCORE.INTER.norm>
1.21894

>  <SCORE.INTRA>
5.71979

>  <SCORE.INTRA.DIHEDRAL>
8.3703

>  <SCORE.INTRA.DIHEDRAL.0>
9.43705

>  <SCORE.INTRA.POLAR>
0

>  <SCORE.INTRA.POLAR.0>
0

>  <SCORE.INTRA.REPUL>
0

>  <SCORE.INTRA.REPUL.0>
0

>  <SCORE.INTRA.VDW>
1.53464

>  <SCORE.INTRA.VDW.0>
0.0605502

>  <SCORE.INTRA.norm>
0.178743

>  <SCORE.RESTR>
0.342869

>  <SCORE.RESTR.CAVITY>
0.342869

>  <SCORE.RESTR.norm>
0.0107147

>  <SCORE.SYSTEM>
0

>  <SCORE.SYSTEM.CONST>
0

>  <SCORE.SYSTEM.DIHEDRAL>
0

>  <SCORE.SYSTEM.norm>
0

>  <SCORE.heavy>
32

>  <SCORE.norm>
1.4084

$$$$
FXR_1
  rDOCK(R)          3D
libRbt.so/2013.1/901 2013/11/27
 33 34  0  0  0  0  0  0  0  0999 V2000
   43.5586   13.7053   10.4478 C   0  0  0  0  0  0
   42.7067   12.5667   10.3288 O   0  0  0  0  0  0
   42.9821   11.7337    9.2768 C   0  0  0  0  0  0
   43.9048   10.6837    9.4004 C   0  0  0  0  0  0
   44.2366    9.8860    8.3069 C   0  0  0  0  0  0
   43.6226   10.1104    7.0804 C   0  0  0  0  0  0
   42.6364   11.0851    6.9693 C   0  0  0  0  0  0
   42.3036   11.9052    8.0590 C   0  0  0  0  0  0
   41.3321   12.8132    7.7348 O   0  0  0  0  0  0
   41.4955   14.1697    8.1152 C   0  0  0  0  0  0
   44.0050    9.3510    5.9310 N   0  0  0  0  0  0
   44.2638   10.0383    4.6478 C   0  0  0  0  0  0
   43.1375   10.9115    4.0981 C   0  0  0  0  0  0
   41.9626   10.6577    4.3621 O   0  0  0  0  0  0
   43.4980   11.9275    3.2328 N   0  0  0  0  0  0
   42.5548   12.9016    2.6343 C   0  0  0  0  0  0
   41.7696   12.2811    1.4172 C   0  0  0  0  0  0
   42.6909   11.8811    0.2524 C   0  0  0  0  0  0
   40.9446   11.0413    1.7856 C   0  0  0  0  0  0
   41.5829   13.4826    3.7246 C   0  0  0  0  0  0
   42.2915   13.8883    5.0181 C   0  0  0  0  0  0
   40.7472   14.6655    3.2188 C   0  0  0  0  0  0
   44.6634    7.8082    6.2132 S   0  0  0  0  0  0
   45.5426    7.4474    5.1133 O   0  0  0  0  0  0
   45.1215    7.7049    7.5871 O   0  0  0  0  0  0
   43.2057    6.8058    6.0602 C   0  0  0  0  0  0
   42.0021    7.2776    6.5817 C   0  0  0  0  0  0
   40.8875    6.4419    6.5893 C   0  0  0  0  0  0
   40.9757    5.1421    6.0727 C   0  0  0  0  0  0
   39.8135    4.2003    6.1727 C   0  0  0  0  0  0
   42.1712    4.7127    5.4782 C   0  0  0  0  0  0
   43.2893    5.5449    5.4628 C   0  0  0  0  0  0
   44.4229   11.8628    2.8291 H   0  0  0  0  0  0
  1  2  1  0  0  0
  2  3  1  0  0  0
  3  8  2  0  0  0
  3  4  1  0  0  0
  4  5  2  0  0  0
  5  6  1  0  0  0
  6  7  2  0  0  0
  6 11  1  0  0  0
  7  8  1  0  0  0
  8  9  1  0  0  0
  9 10  1  0  0  0
 11 12  1  0  0  0
 11 23  1  0  0  0
 12 13  1  0  0  0
 13 14  2  0  0  0
 13 15  1  0  0  0
 15 16  1  0  0  0
 15 33  1  0  0  0
 16 17  1  0  0  0
 16 20  1  0  0  0
 17 18  1  0  0  0
 17 19  1  0  0  0
 20 21  1  0  0  0
 20 22  1  0  0  0
 23 24  2  0  0  0
 23 25  2  0  0  0
 23 26  1  0  0  0
 26 32  2  0  0  0
 26 27  1  0  0  0
 27 28  2  0  0  0
 28 29  1  0  0  0
 29 30  1  0  0  0
 29 31  2  0  0  0
 31 32  1  0  0  0
M  END
>  <CHROM.1>
88.08350460,-133.17506816,45.01069620,-55.85462518,-153.28102196,-28.23956302
-78.91096254,-62.86721061,45.21137899,-39.19509745,42.76666006,10.12506813
5.85510914,-2.16267328,1.39387176,-2.74939503

>  <Name>
FXR_1

>  <RI>
1.65995e+07

>  <Rbt.Current_Directory>
/home/nvk/Dropbox/D3_challenge/ivan/test-docking/src/rdock

>  <Rbt.Executable>
rbdock ($Id: //depot/dev/client3/rdock/2013.1/src/exe/rbdock.cxx#4 $)

>  <Rbt.Library>
libRbt.so (2013.1, Build901 2013/11/27)

>  <Rbt.Parameter_File>
/home/nvk/Dropbox/D3_challenge/ivan/test-docking/rDock_2013.1_src/data/scripts/dock.prm

>  <Rbt.Receptor>
rdock_input.prm

>  <SCORE>
16.202

>  <SCORE.INTER>
10.2861

>  <SCORE.INTER.CONST>
1

>  <SCORE.INTER.POLAR>
0

>  <SCORE.INTER.REPUL>
0

>  <SCORE.INTER.ROT>
10

>  <SCORE.INTER.VDW>
-5.11389

>  <SCORE.INTER.norm>
0.321441

>  <SCORE.INTRA>
5.43925

>  <SCORE.INTRA.DIHEDRAL>
4.99467

>  <SCORE.INTRA.DIHEDRAL.0>
9.43705

>  <SCORE.INTRA.POLAR>
0

>  <SCORE.INTRA.POLAR.0>
0

>  <SCORE.INTRA.REPUL>
0

>  <SCORE.INTRA.REPUL.0>
0

>  <SCORE.INTRA.VDW>
2.94192

>  <SCORE.INTRA.VDW.0>
0.0605502

>  <SCORE.INTRA.norm>
0.169977

>  <SCORE.RESTR>
0.476687

>  <SCORE.RESTR.CAVITY>
0.476687

>  <SCORE.RESTR.norm>
0.0148965

>  <SCORE.SYSTEM>
0

>  <SCORE.SYSTEM.CONST>
0

>  <SCORE.SYSTEM.DIHEDRAL>
0

>  <SCORE.SYSTEM.norm>
0

>  <SCORE.heavy>
32

>  <SCORE.norm>
0.506314

$$$$
FXR_1
  rDOCK(R)          3D
libRbt.so/2013.1/901 2013/11/27
 33 34  0  0  0  0  0  0  0  0999 V2000
   41.3633    4.7411    6.6716 C   0  0  0  0  0  0
   41.9667    5.8954    7.2547 O   0  0  0  0  0  0
   41.8171    7.0583    6.5464 C   0  0  0  0  0  0
   40.6092    7.7723    6.5639 C   0  0  0  0  0  0
   40.4378    8.9140    5.7834 C   0  0  0  0  0  0
   41.4881    9.3741    4.9978 C   0  0  0  0  0  0
   42.7204    8.7307    5.0457 C   0  0  0  0  0  0
   42.9017    7.5712    5.8161 C   0  0  0  0  0  0
   44.1747    7.0806    5.7057 O   0  0  0  0  0  0
   44.3658    5.6996    5.4448 C   0  0  0  0  0  0
   41.3062   10.4995    4.1350 N   0  0  0  0  0  0
   42.1670   11.6916    4.2892 C   0  0  0  0  0  0
   43.2185   11.6398    5.3959 C   0  0  0  0  0  0
   44.3379   11.1788    5.1750 O   0  0  0  0  0  0
   42.8225   12.0479    6.6559 N   0  0  0  0  0  0
   43.7099   12.1097    7.8414 C   0  0  0  0  0  0
   43.2618   13.2368    8.8474 C   0  0  0  0  0  0
   42.8483   14.5390    8.1411 C   0  0  0  0  0  0
   42.0938   12.8243    9.7523 C   0  0  0  0  0  0
   43.8095   10.7053    8.5404 C   0  0  0  0  0  0
   43.8837    9.5382    7.5544 C   0  0  0  0  0  0
   44.9808   10.6039    9.5260 C   0  0  0  0  0  0
   40.5088   10.2159    2.6594 S   0  0  0  0  0  0
   40.9036    8.9186    2.1361 O   0  0  0  0  0  0
   39.1049   10.5676    2.7755 O   0  0  0  0  0  0
   41.2834   11.4436    1.6367 C   0  0  0  0  0  0
   40.7342   12.7237    1.5821 C   0  0  0  0  0  0
   41.2514   13.6502    0.6795 C   0  0  0  0  0  0
   42.3165   13.2989   -0.1608 C   0  0  0  0  0  0
   42.8097   14.2523   -1.2076 C   0  0  0  0  0  0
   42.9096   12.0342   -0.0356 C   0  0  0  0  0  0
   42.4006   11.1034    0.8685 C   0  0  0  0  0  0
   41.8253   12.1032    6.8142 H   0  0  0  0  0  0
  1  2  1  0  0  0
  2  3  1  0  0  0
  3  8  2  0  0  0
  3  4  1  0  0  0
  4  5  2  0  0  0
  5  6  1  0  0  0
  6  7  2  0  0  0
  6 11  1  0  0  0
  7  8  1  0  0  0
  8  9  1  0  0  0
  9 10  1  0  0  0
 11 12  1  0  0  0
 11 23  1  0  0  0
 12 13  1  0  0  0
 13 14  2  0  0  0
 13 15  1  0  0  0
 15 16  1  0  0  0
 15 33  1  0  0  0
 16 17  1  0  0  0
 16 20  1  0  0  0
 17 18  1  0  0  0
 17 19  1  0  0  0
 20 21  1  0  0  0
 20 22  1  0  0  0
 23 24  2  0  0  0
 23 25  2  0  0  0
 23 26  1  0  0  0
 26 32  2  0  0  0
 26 27  1  0  0  0
 27 28  2  0  0  0
 28 29  1  0  0  0
 29 30  1  0  0  0
 29 31  2  0  0  0
 31 32  1  0  0  0
M  END
>  <CHROM.1>
77.26004279,121.97626929,46.84466645,-0.24963760,-37.10356496,88.53308229
150.36781180,-41.90821019,39.61736845,-88.54825825,42.27186286,10.31851742
4.85998786,0.90548528,1.27497149,2.68954398

>  <Name>
FXR_1

>  <RI>
1.65995e+07

>  <Rbt.Current_Directory>
/home/nvk/Dropbox/D3_challenge/ivan/test-docking/src/rdock

>  <Rbt.Executable>
rbdock ($Id: //depot/dev/client3/rdock/2013.1/src/exe/rbdock.cxx#4 $)

>  <Rbt.Library>
libRbt.so (2013.1, Build901 2013/11/27)

>  <Rbt.Parameter_File>
/home/nvk/Dropbox/D3_challenge/ivan/test-docking/rDock_2013.1_src/data/scripts/dock.prm

>  <Rbt.Receptor>
rdock_input.prm

>  <SCORE>
25.911

>  <SCORE.INTER>
19.5942

>  <SCORE.INTER.CONST>
1

>  <SCORE.INTER.POLAR>
0

>  <SCORE.INTER.REPUL>
0

>  <SCORE.INTER.ROT>
10

>  <SCORE.INTER.VDW>
4.19417

>  <SCORE.INTER.norm>
0.612318

>  <SCORE.INTRA>
6.31685

>  <SCORE.INTRA.DIHEDRAL>
7.50671

>  <SCORE.INTRA.DIHEDRAL.0>
9.43705

>  <SCORE.INTRA.POLAR>
0

>  <SCORE.INTRA.POLAR.0>
0

>  <SCORE.INTRA.REPUL>
0

>  <SCORE.INTRA.REPUL.0>
0

>  <SCORE.INTRA.VDW>
2.5635

>  <SCORE.INTRA.VDW.0>
0.0605502

>  <SCORE.INTRA.norm>
0.197402

>  <SCORE.RESTR>
0

>  <SCORE.RESTR.CAVITY>
0

>  <SCORE.RESTR.norm>
0

>  <SCORE.SYSTEM>
0

>  <SCORE.SYSTEM.CONST>
0

>  <SCORE.SYSTEM.DIHEDRAL>
0

>  <SCORE.SYSTEM.norm>
0

>  <SCORE.heavy>
32

>  <SCORE.norm>
0.809719

$$$$
FXR_1
  rDOCK(R)          3D
libRbt.so/2013.1/901 2013/11/27
 33 34  0  0  0  0  0  0  0  0999 V2000
   45.1186    5.2820    6.3060 C   0  0  0  0  0  0
   43.7417    5.6360    6.1829 O   0  0  0  0  0  0
   43.4914    6.9712    6.0067 C   0  0  0  0  0  0
   44.5311    7.8822    5.7657 C   0  0  0  0  0  0
   44.2794    9.2489    5.6613 C   0  0  0  0  0  0
   42.9751    9.7178    5.7653 C   0  0  0  0  0  0
   41.9257    8.8160    5.9079 C   0  0  0  0  0  0
   42.1670    7.4384    6.0294 C   0  0  0  0  0  0
   41.0064    6.7302    6.1867 O   0  0  0  0  0  0
   41.0243    5.5267    6.9368 C   0  0  0  0  0  0
   42.7074   11.1220    5.7350 N   0  0  0  0  0  0
   43.2542   11.9518    4.6403 C   0  0  0  0  0  0
   42.4276   12.0271    3.3581 C   0  0  0  0  0  0
   41.2692   11.6122    3.3346 O   0  0  0  0  0  0
   43.0687   12.4944    2.2259 N   0  0  0  0  0  0
   42.4223   12.6793    0.9050 C   0  0  0  0  0  0
   42.0208   14.1829    0.6575 C   0  0  0  0  0  0
   40.9140   14.3403   -0.3988 C   0  0  0  0  0  0
   41.5432   14.9078    1.9223 C   0  0  0  0  0  0
   43.3320   12.1177   -0.2473 C   0  0  0  0  0  0
   43.7252   10.6522   -0.0534 C   0  0  0  0  0  0
   42.7152   12.2909   -1.6413 C   0  0  0  0  0  0
   41.3601   11.6669    6.6189 S   0  0  0  0  0  0
   40.5956   12.6023    5.8104 O   0  0  0  0  0  0
   40.7036   10.5469    7.2689 O   0  0  0  0  0  0
   42.1697   12.6168    7.8820 C   0  0  0  0  0  0
   43.0963   11.9882    8.7123 C   0  0  0  0  0  0
   43.6318   12.6889    9.7907 C   0  0  0  0  0  0
   43.2457   14.0139   10.0340 C   0  0  0  0  0  0
   43.7343   14.7404   11.2510 C   0  0  0  0  0  0
   42.3751   14.6566    9.1418 C   0  0  0  0  0  0
   41.8388   13.9635    8.0579 C   0  0  0  0  0  0
   44.0792   12.5073    2.2585 H   0  0  0  0  0  0
  1  2  1  0  0  0
  2  3  1  0  0  0
  3  8  2  0  0  0
  3  4  1  0  0  0
  4  5  2  0  0  0
  5  6  1  0  0  0
  6  7  2  0  0  0
  6 11  1  0  0  0
  7  8  1  0  0  0
  8  9  1  0  0  0
  9 10  1  0  0  0
 11 12  1  0  0  0
 11 23  1  0  0  0
 12 13  1  0  0  0
 13 14  2  0  0  0
 13 15  1  0  0  0
 15 16  1  0  0  0
 15 33  1  0  0  0
 16 17  1  0  0  0
 16 20  1  0  0  0
 17 18  1  0  0  0
 17 19  1  0  0  0
 20 21  1  0  0  0
 20 22  1  0  0  0
 23 24  2  0  0  0
 23 25  2  0  0  0
 23 26  1  0  0  0
 26 32  2  0  0  0
 26 27  1  0  0  0
 27 28  2  0  0  0
 28 29  1  0  0  0
 29 30  1  0  0  0
 29 31  2  0  0  0
 31 32  1  0  0  0
M  END
>  <CHROM.1>
9.10616602,51.62158968,28.89576665,85.86312034,-134.68960513,12.25304425
99.20499493,-158.21430531,55.41661867,-58.53810774,42.49662979,11.02706783
5.17553242,-0.98066671,1.45689425,-1.75932708

>  <Name>
FXR_1

>  <RI>
1.65995e+07

>  <Rbt.Current_Directory>
/home/nvk/Dropbox/D3_challenge/ivan/test-docking/src/rdock

>  <Rbt.Executable>
rbdock ($Id: //depot/dev/client3/rdock/2013.1/src/exe/rbdock.cxx#4 $)

>  <Rbt.Library>
libRbt.so (2013.1, Build901 2013/11/27)

>  <Rbt.Parameter_File>
/home/nvk/Dropbox/D3_challenge/ivan/test-docking/rDock_2013.1_src/data/scripts/dock.prm

>  <Rbt.Receptor>
rdock_input.prm

>  <SCORE>
38.2534

>  <SCORE.INTER>
31.9055

>  <SCORE.INTER.CONST>
1

>  <SCORE.INTER.POLAR>
0

>  <SCORE.INTER.REPUL>
0.0422816

>  <SCORE.INTER.ROT>
10

>  <SCORE.INTER.VDW>
16.2941

>  <SCORE.INTER.norm>
0.997047

>  <SCORE.INTRA>
6.31449

>  <SCORE.INTRA.DIHEDRAL>
0.735175

>  <SCORE.INTRA.DIHEDRAL.0>
9.43705

>  <SCORE.INTRA.POLAR>
0

>  <SCORE.INTRA.POLAR.0>
0

>  <SCORE.INTRA.REPUL>
0

>  <SCORE.INTRA.REPUL.0>
0

>  <SCORE.INTRA.VDW>
5.94691

>  <SCORE.INTRA.VDW.0>
0.0605502

>  <SCORE.INTRA.norm>
0.197328

>  <SCORE.RESTR>
0.0334383

>  <SCORE.RESTR.CAVITY>
0.0334383

>  <SCORE.RESTR.norm>
0.00104495

>  <SCORE.SYSTEM>
0

>  <SCORE.SYSTEM.CONST>
0

>  <SCORE.SYSTEM.DIHEDRAL>
0

>  <SCORE.SYSTEM.norm>
0

>  <SCORE.heavy>
32

>  <SCORE.norm>
1.19542

$$$$
FXR_1
  rDOCK(R)          3D
libRbt.so/2013.1/901 2013/11/27
 33 34  0  0  0  0  0  0  0  0999 V2000
   43.5037   14.3823   10.6380 C   0  0  0  0  0  0
   42.6694   13.4633    9.9340 O   0  0  0  0  0  0
   42.8507   13.4255    8.5768 C   0  0  0  0  0  0
   41.9775   14.0948    7.7058 C   0  0  0  0  0  0
   42.1226   13.9922    6.3235 C   0  0  0  0  0  0
   43.1666   13.2417    5.7955 C   0  0  0  0  0  0
   44.0948   12.6531    6.6480 C   0  0  0  0  0  0
   43.9515   12.7363    8.0420 C   0  0  0  0  0  0
   44.9520   12.0706    8.6972 O   0  0  0  0  0  0
   44.7195   10.7502    9.1599 C   0  0  0  0  0  0
   43.2865   13.0648    4.3818 N   0  0  0  0  0  0
   43.6412   11.7381    3.8339 C   0  0  0  0  0  0
   43.6924   10.5777    4.8258 C   0  0  0  0  0  0
   44.6597    9.8173    4.8506 O   0  0  0  0  0  0
   42.5756   10.3793    5.6161 N   0  0  0  0  0  0
   42.4559    9.3365    6.6626 C   0  0  0  0  0  0
   41.3526    9.7019    7.7266 C   0  0  0  0  0  0
   41.8214    9.4802    9.1746 C   0  0  0  0  0  0
   40.8607   11.1517    7.6291 C   0  0  0  0  0  0
   42.2061    7.9240    6.0198 C   0  0  0  0  0  0
   43.4565    7.0438    5.9787 C   0  0  0  0  0  0
   41.0683    7.1470    6.6946 C   0  0  0  0  0  0
   42.5018   14.2064    3.3948 S   0  0  0  0  0  0
   41.0734   14.1790    3.6627 O   0  0  0  0  0  0
   43.2302   15.4623    3.4085 O   0  0  0  0  0  0
   42.7427   13.4675    1.7981 C   0  0  0  0  0  0
   43.6954   14.0109    0.9377 C   0  0  0  0  0  0
   43.7942   13.5260   -0.3645 C   0  0  0  0  0  0
   42.9473   12.4987   -0.8019 C   0  0  0  0  0  0
   42.9735   12.0436   -2.2301 C   0  0  0  0  0  0
   42.0510   11.9084    0.1010 C   0  0  0  0  0  0
   41.9496   12.3851    1.4069 C   0  0  0  0  0  0
   41.7268   10.8371    5.3122 H   0  0  0  0  0  0
  1  2  1  0  0  0
  2  3  1  0  0  0
  3  8  2  0  0  0
  3  4  1  0  0  0
  4  5  2  0  0  0
  5  6  1  0  0  0
  6  7  2  0  0  0
  6 11  1  0  0  0
  7  8  1  0  0  0
  8  9  1  0  0  0
  9 10  1  0  0  0
 11 12  1  0  0  0
 11 23  1  0  0  0
 12 13  1  0  0  0
 13 14  2  0  0  0
 13 15  1  0  0  0
 15 16  1  0  0  0
 15 33  1  0  0  0
 16 17  1  0  0  0
 16 20  1  0  0  0
 17 18  1  0  0  0
 17 19  1  0  0  0
 20 21  1  0  0  0
 20 22  1  0  0  0
 23 24  2  0  0  0
 23 25  2  0  0  0
 23 26  1  0  0  0
 26 32  2  0  0  0
 26 27  1  0  0  0
 27 28  2  0  0  0
 28 29  1  0  0  0
 29 30  1  0  0  0
 29 31  2  0  0  0
 31 32  1  0  0  0
M  END
>  <CHROM.1>
-100.44289158,-137.73906840,81.20655652,7.32263225,-60.56913721,-131.23606336
157.92706591,-134.28380759,101.98247096,-104.63048569,42.86245969,11.99757688
5.19945225,-1.52470342,-1.49086536,-1.28556819

>  <Name>
FXR_1

>  <RI>
1.65995e+07

>  <Rbt.Current_Directory>
/home/nvk/Dropbox/D3_challenge/ivan/test-docking/src/rdock

>  <Rbt.Executable>
rbdock ($Id: //depot/dev/client3/rdock/2013.1/src/exe/rbdock.cxx#4 $)

>  <Rbt.Library>
libRbt.so (2013.1, Build901 2013/11/27)

>  <Rbt.Parameter_File>
/home/nvk/Dropbox/D3_challenge/ivan/test-docking/rDock_2013.1_src/data/scripts/dock.prm

>  <Rbt.Receptor>
rdock_input.prm

>  <SCORE>
28.9638

>  <SCORE.INTER>
18.6926

>  <SCORE.INTER.CONST>
1

>  <SCORE.INTER.POLAR>
0

>  <SCORE.INTER.REPUL>
0.118968

>  <SCORE.INTER.ROT>
10

>  <SCORE.INTER.VDW>
2.69777

>  <SCORE.INTER.norm>
0.584144

>  <SCORE.INTRA>
10.2418

>  <SCORE.INTRA.DIHEDRAL>
16.3131

>  <SCORE.INTRA.DIHEDRAL.0>
9.43705

>  <SCORE.INTRA.POLAR>
0

>  <SCORE.INTRA.POLAR.0>
0

>  <SCORE.INTRA.REPUL>
0

>  <SCORE.INTRA.REPUL.0>
0

>  <SCORE.INTRA.VDW>
2.08521

>  <SCORE.INTRA.VDW.0>
0.0605502

>  <SCORE.INTRA.norm>
0.320055

>  <SCORE.RESTR>
0.0294304

>  <SCORE.RESTR.CAVITY>
0.0294304

>  <SCORE.RESTR.norm>
0.0009197

>  <SCORE.SYSTEM>
0

>  <SCORE.SYSTEM.CONST>
0

>  <SCORE.SYSTEM.DIHEDRAL>
0

>  <SCORE.SYSTEM.norm>
0

>  <SCORE.heavy>
32

>  <SCORE.norm>
0.905119

$$$$
FXR_1
  rDOCK(R)          3D
libRbt.so/2013.1/901 2013/11/27
 33 34  0  0  0  0  0  0  0  0999 V2000
   42.5268   13.5970   10.5957 C   0  0  0  0  0  0
   42.3509   13.8718    9.2065 O   0  0  0  0  0  0
   42.4132   12.7819    8.3791 C   0  0  0  0  0  0
   41.2928   11.9648    8.1640 C   0  0  0  0  0  0
   41.3811   10.8156    7.3807 C   0  0  0  0  0  0
   42.5882   10.4870    6.7752 C   0  0  0  0  0  0
   43.6798   11.3398    6.9022 C   0  0  0  0  0  0
   43.6084   12.4925    7.7004 C   0  0  0  0  0  0
   44.7933   13.1775    7.7124 O   0  0  0  0  0  0
   44.9787   14.2264    8.6489 C   0  0  0  0  0  0
   42.7163    9.2736    6.0300 N   0  0  0  0  0  0
   42.0461    9.1413    4.7187 C   0  0  0  0  0  0
   41.0609   10.2445    4.3376 C   0  0  0  0  0  0
   39.8504   10.0234    4.3173 O   0  0  0  0  0  0
   41.5984   11.4538    3.9380 N   0  0  0  0  0  0
   40.8049   12.6516    3.5739 C   0  0  0  0  0  0
   41.6250   13.9806    3.7840 C   0  0  0  0  0  0
   40.7627   15.2454    3.6353 C   0  0  0  0  0  0
   42.3184   14.0657    5.1497 C   0  0  0  0  0  0
   40.2486   12.5309    2.1087 C   0  0  0  0  0  0
   41.3451   12.4771    1.0435 C   0  0  0  0  0  0
   39.3058   11.3358    1.9181 C   0  0  0  0  0  0
   44.0397    8.2745    6.4093 S   0  0  0  0  0  0
   45.0664    8.4218    5.3910 O   0  0  0  0  0  0
   44.3738    8.4020    7.8165 O   0  0  0  0  0  0
   43.3078    6.6733    6.1779 C   0  0  0  0  0  0
   43.9701    5.7339    5.3892 C   0  0  0  0  0  0
   43.3398    4.5282    5.0899 C   0  0  0  0  0  0
   42.0549    4.2617    5.5819 C   0  0  0  0  0  0
   41.3264    3.0149    5.1789 C   0  0  0  0  0  0
   41.4370    5.1829    6.4403 C   0  0  0  0  0  0
   42.0635    6.3894    6.7480 C   0  0  0  0  0  0
   42.5765   11.4446    3.6817 H   0  0  0  0  0  0
  1  2  1  0  0  0
  2  3  1  0  0  0
  3  8  2  0  0  0
  3  4  1  0  0  0
  4  5  2  0  0  0
  5  6  1  0  0  0
  6  7  2  0  0  0
  6 11  1  0  0  0
  7  8  1  0  0  0
  8  9  1  0  0  0
  9 10  1  0  0  0
 11 12  1  0  0  0
 11 23  1  0  0  0
 12 13  1  0  0  0
 13 14  2  0  0  0
 13 15  1  0  0  0
 15 16  1  0  0  0
 15 33  1  0  0  0
 16 17  1  0  0  0
 16 20  1  0  0  0
 17 18  1  0  0  0
 17 19  1  0  0  0
 20 21  1  0  0  0
 20 22  1  0  0  0
 23 24  2  0  0  0
 23 25  2  0  0  0
 23 26  1  0  0  0
 26 32  2  0  0  0
 26 27  1  0  0  0
 27 28  2  0  0  0
 28 29  1  0  0  0
 29 30  1  0  0  0
 29 31  2  0  0  0
 31 32  1  0  0  0
M  END
>  <CHROM.1>
83.49203649,71.47975426,9.80785290,-9.60855630,-103.17263047,-108.81192620
154.79543704,-170.67398500,-63.45889087,129.92642568,42.40374303,10.25127986
5.83943615,-1.71552522,1.06993795,-2.97531134

>  <Name>
FXR_1

>  <RI>
1.65995e+07

>  <Rbt.Current_Directory>
/home/nvk/Dropbox/D3_challenge/ivan/test-docking/src/rdock

>  <Rbt.Executable>
rbdock ($Id: //depot/dev/client3/rdock/2013.1/src/exe/rbdock.cxx#4 $)

>  <Rbt.Library>
libRbt.so (2013.1, Build901 2013/11/27)

>  <Rbt.Parameter_File>
/home/nvk/Dropbox/D3_challenge/ivan/test-docking/rDock_2013.1_src/data/scripts/dock.prm

>  <Rbt.Receptor>
rdock_input.prm

>  <SCORE>
34.1206

>  <SCORE.INTER>
34.1896

>  <SCORE.INTER.CONST>
1

>  <SCORE.INTER.POLAR>
0

>  <SCORE.INTER.REPUL>
0

>  <SCORE.INTER.ROT>
10

>  <SCORE.INTER.VDW>
18.7896

>  <SCORE.INTER.norm>
1.06842

>  <SCORE.INTRA>
-0.215243

>  <SCORE.INTRA.DIHEDRAL>
1.94937

>  <SCORE.INTRA.DIHEDRAL.0>
9.43705

>  <SCORE.INTRA.POLAR>
0

>  <SCORE.INTRA.POLAR.0>
0

>  <SCORE.INTRA.REPUL>
0

>  <SCORE.INTRA.REPUL.0>
0

>  <SCORE.INTRA.VDW>
-1.18993

>  <SCORE.INTRA.VDW.0>
0.0605502

>  <SCORE.INTRA.norm>
-0.00672636

>  <SCORE.RESTR>
0.146247

>  <SCORE.RESTR.CAVITY>
0.146247

>  <SCORE.RESTR.norm>
0.00457021

>  <SCORE.SYSTEM>
0

>  <SCORE.SYSTEM.CONST>
0

>  <SCORE.SYSTEM.DIHEDRAL>
0

>  <SCORE.SYSTEM.norm>
0

>  <SCORE.heavy>
32

>  <SCORE.norm>
1.06627

$$$$
