FXR_1
 OpenBabel06201717133D
Structure written by MMmdl.
 66 67  0  0  0  0  0  0  0  0999 V2000
    4.2044    0.4234    1.4822 C   0  0  0  0  0  0  0  0  0  0  0  0
    3.5894   -0.0377    0.2799 O   0  0  0  0  0  0  0  0  0  0  0  0
    3.7517    0.7734   -0.8120 C   0  0  0  0  0  0  0  0  0  0  0  0
    4.9210    1.5279   -0.9923 C   0  0  0  0  0  0  0  0  0  0  0  0
    5.0504    2.4076   -2.0654 C   0  0  0  0  0  0  0  0  0  0  0  0
    4.0201    2.5188   -2.9916 C   0  0  0  0  0  0  0  0  0  0  0  0
    2.8971    1.7060   -2.8771 C   0  0  0  0  0  0  0  0  0  0  0  0
    2.7478    0.8268   -1.7929 C   0  0  0  0  0  0  0  0  0  0  0  0
    1.5654    0.1400   -1.8535 O   0  0  0  0  0  0  0  0  0  0  0  0
    1.2194   -0.7401   -0.7965 C   0  0  0  0  0  0  0  0  0  0  0  0
    4.1046    3.4696   -4.0560 N   0  0  0  0  0  0  0  0  0  0  0  0
    3.7727    4.8881   -3.8035 C   0  0  0  0  0  0  0  0  0  0  0  0
    2.3110    5.2931   -3.9836 C   0  0  0  0  0  0  0  0  0  0  0  0
    2.0130    6.2807   -4.6547 O   0  0  0  0  0  0  0  0  0  0  0  0
    1.3672    4.5571   -3.2918 N   0  0  0  0  0  0  0  0  0  0  0  0
   -0.0971    4.7712   -3.3741 C   0  0  0  0  0  0  0  0  0  0  0  0
   -0.6925    4.2182   -4.7242 C   0  0  0  0  0  0  0  0  0  0  0  0
   -2.2282    4.2872   -4.7733 C   0  0  0  0  0  0  0  0  0  0  0  0
   -0.1686    4.9440   -5.9700 C   0  0  0  0  0  0  0  0  0  0  0  0
   -0.8235    4.1629   -2.1199 C   0  0  0  0  0  0  0  0  0  0  0  0
   -0.6210    2.6540   -1.9711 C   0  0  0  0  0  0  0  0  0  0  0  0
   -0.4363    4.8525   -0.8053 C   0  0  0  0  0  0  0  0  0  0  0  0
    5.0819    3.0520   -5.3841 S   0  0  0  0  0  0  0  0  0  0  0  0
    5.4109    4.2493   -6.1398 O   0  0  0  0  0  0  0  0  0  0  0  0
    6.1264    2.1343   -4.9659 O   0  0  0  0  0  0  0  0  0  0  0  0
    3.9194    2.1287   -6.3584 C   0  0  0  0  0  0  0  0  0  0  0  0
    3.1121    2.8062   -7.2708 C   0  0  0  0  0  0  0  0  0  0  0  0
    2.1048    2.1122   -7.9374 C   0  0  0  0  0  0  0  0  0  0  0  0
    1.9097    0.7456   -7.6959 C   0  0  0  0  0  0  0  0  0  0  0  0
    0.7629    0.0148   -8.3271 C   0  0  0  0  0  0  0  0  0  0  0  0
    2.7827    0.0625   -6.8366 C   0  0  0  0  0  0  0  0  0  0  0  0
    3.7958    0.7492   -6.1696 C   0  0  0  0  0  0  0  0  0  0  0  0
    3.7883   -0.1496    2.3158 H   0  0  0  0  0  0  0  0  0  0  0  0
    3.9903    1.4831    1.6653 H   0  0  0  0  0  0  0  0  0  0  0  0
    5.2830    0.2396    1.4619 H   0  0  0  0  0  0  0  0  0  0  0  0
    5.7617    1.4387   -0.3119 H   0  0  0  0  0  0  0  0  0  0  0  0
    5.9668    2.9795   -2.1851 H   0  0  0  0  0  0  0  0  0  0  0  0
    2.1102    1.7631   -3.6263 H   0  0  0  0  0  0  0  0  0  0  0  0
    0.2404   -1.1690   -1.0350 H   0  0  0  0  0  0  0  0  0  0  0  0
    1.1118   -0.2024    0.1507 H   0  0  0  0  0  0  0  0  0  0  0  0
    1.9279   -1.5700   -0.7242 H   0  0  0  0  0  0  0  0  0  0  0  0
    4.3480    5.5332   -4.4773 H   0  0  0  0  0  0  0  0  0  0  0  0
    4.0817    5.1798   -2.7939 H   0  0  0  0  0  0  0  0  0  0  0  0
    1.7149    3.9859   -2.5333 H   0  0  0  0  0  0  0  0  0  0  0  0
   -0.2571    5.8579   -3.3542 H   0  0  0  0  0  0  0  0  0  0  0  0
   -0.4019    3.1657   -4.8319 H   0  0  0  0  0  0  0  0  0  0  0  0
   -2.5927    5.2714   -4.4595 H   0  0  0  0  0  0  0  0  0  0  0  0
   -2.6829    3.5245   -4.1347 H   0  0  0  0  0  0  0  0  0  0  0  0
   -2.6032    4.1024   -5.7867 H   0  0  0  0  0  0  0  0  0  0  0  0
   -0.2721    6.0296   -5.8714 H   0  0  0  0  0  0  0  0  0  0  0  0
   -0.7169    4.6408   -6.8688 H   0  0  0  0  0  0  0  0  0  0  0  0
    0.8774    4.6951   -6.1619 H   0  0  0  0  0  0  0  0  0  0  0  0
   -1.9018    4.3313   -2.2242 H   0  0  0  0  0  0  0  0  0  0  0  0
    0.4172    2.4328   -1.7299 H   0  0  0  0  0  0  0  0  0  0  0  0
   -0.8976    2.1065   -2.8758 H   0  0  0  0  0  0  0  0  0  0  0  0
   -1.2297    2.2562   -1.1515 H   0  0  0  0  0  0  0  0  0  0  0  0
    0.6461    4.8801   -0.6531 H   0  0  0  0  0  0  0  0  0  0  0  0
   -0.8766    4.3248    0.0503 H   0  0  0  0  0  0  0  0  0  0  0  0
   -0.8170    5.8784   -0.7823 H   0  0  0  0  0  0  0  0  0  0  0  0
    3.2374    3.8731   -7.4425 H   0  0  0  0  0  0  0  0  0  0  0  0
    1.4560    2.6522   -8.6234 H   0  0  0  0  0  0  0  0  0  0  0  0
    0.1128    0.6981   -8.8847 H   0  0  0  0  0  0  0  0  0  0  0  0
    0.1523   -0.4545   -7.5479 H   0  0  0  0  0  0  0  0  0  0  0  0
    1.1285   -0.7526   -9.0137 H   0  0  0  0  0  0  0  0  0  0  0  0
    2.6566   -1.0040   -6.6616 H   0  0  0  0  0  0  0  0  0  0  0  0
    4.4481    0.2169   -5.4810 H   0  0  0  0  0  0  0  0  0  0  0  0
  1  2  1  0  0  0  0
  1 33  1  0  0  0  0
  1 34  1  0  0  0  0
  1 35  1  0  0  0  0
  2  3  1  0  0  0  0
  3  8  2  0  0  0  0
  3  4  1  0  0  0  0
  4  5  2  0  0  0  0
  4 36  1  0  0  0  0
  5  6  1  0  0  0  0
  5 37  1  0  0  0  0
  6  7  2  0  0  0  0
  6 11  1  0  0  0  0
  7  8  1  0  0  0  0
  7 38  1  0  0  0  0
  8  9  1  0  0  0  0
  9 10  1  0  0  0  0
 10 39  1  0  0  0  0
 10 40  1  0  0  0  0
 10 41  1  0  0  0  0
 11 12  1  0  0  0  0
 11 23  1  0  0  0  0
 12 13  1  0  0  0  0
 12 42  1  0  0  0  0
 12 43  1  0  0  0  0
 13 14  2  0  0  0  0
 13 15  1  0  0  0  0
 15 16  1  0  0  0  0
 15 44  1  0  0  0  0
 16 17  1  0  0  0  0
 16 20  1  0  0  0  0
 16 45  1  0  0  0  0
 17 18  1  0  0  0  0
 17 19  1  0  0  0  0
 17 46  1  0  0  0  0
 18 47  1  0  0  0  0
 18 48  1  0  0  0  0
 18 49  1  0  0  0  0
 19 50  1  0  0  0  0
 19 51  1  0  0  0  0
 19 52  1  0  0  0  0
 20 21  1  0  0  0  0
 20 22  1  0  0  0  0
 20 53  1  0  0  0  0
 21 54  1  0  0  0  0
 21 55  1  0  0  0  0
 21 56  1  0  0  0  0
 22 57  1  0  0  0  0
 22 58  1  0  0  0  0
 22 59  1  0  0  0  0
 23 24  2  0  0  0  0
 23 25  2  0  0  0  0
 23 26  1  0  0  0  0
 26 32  2  0  0  0  0
 26 27  1  0  0  0  0
 27 28  2  0  0  0  0
 27 60  1  0  0  0  0
 28 29  1  0  0  0  0
 28 61  1  0  0  0  0
 29 30  1  0  0  0  0
 29 31  2  0  0  0  0
 30 62  1  0  0  0  0
 30 63  1  0  0  0  0
 30 64  1  0  0  0  0
 31 32  1  0  0  0  0
 31 65  1  0  0  0  0
 32 66  1  0  0  0  0
M  END
$$$$
