@<TRIPOS>MOLECULE
best_pose.pdb
 66 67 0 0 0
SMALL
GASTEIGER

@<TRIPOS>ATOM
      1 C1         26.3960   -2.1480   12.6560 C.ar    1  LIG1        0.1616
      2 C2         26.1010   -1.0680   11.7950 C.ar    1  LIG1       -0.0145
      3 C3         26.9090    0.0660   11.7920 C.ar    1  LIG1       -0.0354
      4 C4         28.0050    0.1530   12.6480 C.ar    1  LIG1        0.0555
      5 C5         28.3430   -0.9210   13.4780 C.ar    1  LIG1        0.0063
      6 C6         27.5330   -2.0770   13.4980 C.ar    1  LIG1        0.1633
      7 C17        31.3150    0.3430   11.9940 C.ar    1  LIG1        0.1087
      8 C18        31.2250   -1.0410   11.8000 C.ar    1  LIG1       -0.0348
      9 C19        32.2360   -1.8610   12.3080 C.ar    1  LIG1       -0.0570
     10 C20        33.3390   -1.3050   12.9690 C.ar    1  LIG1       -0.0503
     11 C22        33.4270    0.0830   13.1290 C.ar    1  LIG1       -0.0570
     12 C23        32.4250    0.9160   12.6310 C.ar    1  LIG1       -0.0348
     13 C          24.4520   -3.2750   11.8840 C.3     1  LIG1        0.0790
     14 O          25.6050   -3.3110   12.7260 O.3     1  LIG1       -0.4915
     15 O1         27.8060   -3.1910   14.3150 O.3     1  LIG1       -0.4914
     16 C7         28.8830   -2.9880   15.2320 C.3     1  LIG1        0.0790
     17 N          28.8190    1.3480   12.6050 N.pl3   1  LIG1       -0.1941
     18 C8         29.1920    1.9140   13.9400 C.3     1  LIG1        0.1111
     19 C9         28.6830    3.3220   14.1240 C.2     1  LIG1        0.2324
     20 O2         27.7010    3.7690   13.5490 O.2     1  LIG1       -0.2740
     21 N1         29.4570    4.0250   15.0190 N.am    1  LIG1       -0.3106
     22 C10        29.3390    5.4570   15.2010 C.3     1  LIG1        0.0278
     23 C11        29.6660    5.8540   16.6440 C.3     1  LIG1       -0.0280
     24 C12        28.5710    5.3690   17.5680 C.3     1  LIG1       -0.0610
     25 C13        30.9830    5.3050   17.1580 C.3     1  LIG1       -0.0610
     26 C14        30.2030    6.2310   14.1960 C.3     1  LIG1       -0.0280
     27 C15        31.4300    5.4710   13.7090 C.3     1  LIG1       -0.0610
     28 C16        29.3840    6.5960   12.9760 C.3     1  LIG1       -0.0610
     29 S          30.0220    1.4170   11.3470 S.O2    1  LIG1        0.0751
     30 O3         29.5250    0.7970   10.1330 O.2     1  LIG1       -0.1498
     31 O4         30.5800    2.7540   11.3190 O.2     1  LIG1       -0.1498
     32 C21        34.3790   -2.1880   13.5740 C.3     1  LIG1       -0.0397
     33 H          24.7500   -3.2250   10.8320 H       1  LIG1        0.0660
     34 H1         23.8120   -2.4270   12.1460 H       1  LIG1        0.0660
     35 H2         23.8850   -4.1960   12.0390 H       1  LIG1        0.0660
     36 H3         25.2580   -1.0540   11.1150 H       1  LIG1        0.0656
     37 H4         26.6700    0.8920   11.1330 H       1  LIG1        0.0638
     38 H5         29.2350   -0.8220   14.0840 H       1  LIG1        0.0674
     39 H6         28.9630   -3.8720   15.8710 H       1  LIG1        0.0660
     40 H7         28.6890   -2.1180   15.8660 H       1  LIG1        0.0660
     41 H8         29.8250   -2.8670   14.6880 H       1  LIG1        0.0660
     42 H9         30.2800    1.8920   14.0650 H       1  LIG1        0.0578
     43 H10        28.7760    1.3150   14.7540 H       1  LIG1        0.0578
     44 H11        30.2790    3.5710   15.4030 H       1  LIG1        0.1490
     45 H12        28.2950    5.7310   15.0200 H       1  LIG1        0.0503
     46 H13        29.6980    6.9460   16.7050 H       1  LIG1        0.0313
     47 H14        28.4990    4.2780   17.5540 H       1  LIG1        0.0233
     48 H15        27.6070    5.7840   17.2660 H       1  LIG1        0.0233
     49 H16        28.7730    5.6830   18.5950 H       1  LIG1        0.0233
     50 H17        31.8240    5.6900   16.5790 H       1  LIG1        0.0233
     51 H18        31.0020    4.2130   17.1170 H       1  LIG1        0.0233
     52 H19        31.1310    5.6010   18.1990 H       1  LIG1        0.0233
     53 H20        30.5220    7.1660   14.6620 H       1  LIG1        0.0313
     54 H21        31.1450    4.5910   13.1270 H       1  LIG1        0.0233
     55 H22        32.0600    5.1460   14.5390 H       1  LIG1        0.0233
     56 H23        32.0310    6.1070   13.0560 H       1  LIG1        0.0233
     57 H24        28.4720    7.1240   13.2650 H       1  LIG1        0.0233
     58 H25        29.1000    5.7020   12.4160 H       1  LIG1        0.0233
     59 H26        29.9610    7.2430   12.3100 H       1  LIG1        0.0233
     60 H27        30.3760   -1.4840   11.2900 H       1  LIG1        0.0637
     61 H28        32.1610   -2.9380   12.1940 H       1  LIG1        0.0621
     62 H29        34.1180   -2.4180   14.6100 H       1  LIG1        0.0278
     63 H30        35.3550   -1.6920   13.5520 H       1  LIG1        0.0278
     64 H31        34.4640   -3.1200   13.0090 H       1  LIG1        0.0278
     65 H32        34.2750    0.5150   13.6490 H       1  LIG1        0.0621
     66 H33        32.5090    1.9900   12.7630 H       1  LIG1        0.0637
@<TRIPOS>BOND
     1    30    29    2
     2    33    13    1
     3    36     2    1
     4    37     3    1
     5    60     8    1
     6    31    29    2
     7    29     7    1
     8    29    17    1
     9     3     2   ar
    10     3     4   ar
    11     2     1   ar
    12     8     7   ar
    13     8     9   ar
    14    13    35    1
    15    13    34    1
    16    13    14    1
    17     7    12   ar
    18    61     9    1
    19     9    10   ar
    20    59    28    1
    21    58    28    1
    22    17     4    1
    23    17    18    1
    24    12    66    1
    25    12    11   ar
    26     4     5   ar
    27     1    14    1
    28     1     6   ar
    29    10    11   ar
    30    10    32    1
    31    28    57    1
    32    28    26    1
    33    64    32    1
    34    56    27    1
    35    54    27    1
    36    11    65    1
    37     5     6   ar
    38     5    38    1
    39     6    15    1
    40    20    19    2
    41    63    32    1
    42    32    62    1
    43    27    26    1
    44    27    55    1
    45    18    42    1
    46    18    19    1
    47    18    43    1
    48    19    21   am
    49    26    53    1
    50    26    22    1
    51    15    16    1
    52    41    16    1
    53    21    22    1
    54    21    44    1
    55    45    22    1
    56    22    23    1
    57    16    40    1
    58    16    39    1
    59    50    25    1
    60    23    46    1
    61    23    25    1
    62    23    24    1
    63    51    25    1
    64    25    52    1
    65    48    24    1
    66    47    24    1
    67    24    49    1
