@<TRIPOS>MOLECULE
docking_output_1.pdb
 66 67 0 0 0
SMALL
GASTEIGER

@<TRIPOS>ATOM
      1  C         44.2510   14.3780    0.9050 C.3     0  UNK0        0.0790
      2  O         44.5900   13.0830    1.3940 O.3     0  UNK0       -0.4915
      3  C         43.9390   12.6860    2.5360 C.ar    0  UNK0        0.1616
      4  C         44.6280   11.7180    3.2770 C.ar    0  UNK0       -0.0145
      5  C         44.0760   11.1950    4.4510 C.ar    0  UNK0       -0.0354
      6  C         42.8180   11.6270    4.8920 C.ar    0  UNK0        0.0555
      7  C         42.1240   12.5710    4.1400 C.ar    0  UNK0        0.0063
      8  C         42.6690   13.1060    2.9670 C.ar    0  UNK0        0.1633
      9  O         41.9180   13.9030    2.1460 O.3     0  UNK0       -0.4914
     10  C         40.8760   13.2570    1.4240 C.3     0  UNK0        0.0790
     11  N         42.0890   10.9470    5.9250 N.pl3   0  UNK0       -0.1941
     12  C         41.5000    9.6170    5.5820 C.3     0  UNK0        0.1111
     13  C         42.2650    8.4500    6.2040 C.2     0  UNK0        0.2324
     14  O         43.4150    8.6150    6.6120 O.2     0  UNK0       -0.2740
     15  N         41.5960    7.2430    6.3130 N.am    0  UNK0       -0.3106
     16  C         42.2340    6.0240    6.8140 C.3     0  UNK0        0.0278
     17  C         41.2100    4.9830    7.3810 C.3     0  UNK0       -0.0280
     18  C         40.1140    4.6260    6.3650 C.3     0  UNK0       -0.0610
     19  C         41.7950    3.6710    7.9020 C.3     0  UNK0       -0.0610
     20  C         43.2750    5.4310    5.8080 C.3     0  UNK0       -0.0280
     21  C         42.7830    5.1520    4.3850 C.3     0  UNK0       -0.0610
     22  C         44.5240    6.3210    5.6780 C.3     0  UNK0       -0.0610
     23  S         41.0880   11.9560    6.9140 S.O2    0  UNK0        0.0751
     24  O         40.4440   12.9290    6.0860 O.2     0  UNK0       -0.1498
     25  O         40.2910   11.0710    7.7670 O.2     0  UNK0       -0.1498
     26  C         42.2610   12.7910    7.9710 C.ar    0  UNK0        0.1087
     27  C         42.0140   12.9020    9.3440 C.ar    0  UNK0       -0.0348
     28  C         42.8640   13.6990   10.1230 C.ar    0  UNK0       -0.0570
     29  C         43.9430   14.3800    9.5400 C.ar    0  UNK0       -0.0503
     30  C         44.8040   15.2940   10.3630 C.3     0  UNK0       -0.0397
     31  C         44.2180   14.1920    8.1800 C.ar    0  UNK0       -0.0570
     32  C         43.3880   13.3900    7.4040 C.ar    0  UNK0       -0.0348
     33  H         40.6460    7.2080    5.9620 H       0  UNK0        0.1490
     34 H          44.8134   14.5828    0.0181 H       0  UNK0        0.0660
     35 H          44.4796   15.1116    1.6497 H       0  UNK0        0.0660
     36 H          43.2054   14.4119    0.6801 H       0  UNK0        0.0660
     37 H          45.5509   11.3877    2.9542 H       0  UNK0        0.0656
     38 H          44.5968   10.4888    4.9941 H       0  UNK0        0.0638
     39 H          41.1910   12.8819    4.4530 H       0  UNK0        0.0674
     40 H          40.3616   13.9755    0.8206 H       0  UNK0        0.0660
     41 H          40.1883   12.8115    2.1122 H       0  UNK0        0.0660
     42 H          41.2944   12.4982    0.7963 H       0  UNK0        0.0660
     43 H          41.5098    9.5034    4.5181 H       0  UNK0        0.0578
     44 H          40.5052    9.5951    5.9756 H       0  UNK0        0.0578
     45 H          42.8136    6.3126    7.6659 H       0  UNK0        0.0503
     46 H          40.8111    5.5092    8.2230 H       0  UNK0        0.0313
     47 H          40.5495    4.1024    5.5397 H       0  UNK0        0.0233
     48 H          39.6484    5.5227    6.0128 H       0  UNK0        0.0233
     49 H          39.3808    4.0043    6.8349 H       0  UNK0        0.0233
     50 H          42.2054    3.1144    7.0855 H       0  UNK0        0.0233
     51 H          41.0232    3.0981    8.3720 H       0  UNK0        0.0233
     52 H          42.5661    3.8818    8.6133 H       0  UNK0        0.0233
     53 H          43.4888    4.4852    6.2603 H       0  UNK0        0.0313
     54 H          42.5578    6.0775    3.8976 H       0  UNK0        0.0233
     55 H          41.9020    4.5461    4.4246 H       0  UNK0        0.0233
     56 H          43.5455    4.6374    3.8385 H       0  UNK0        0.0233
     57 H          44.2539    7.2502    5.2214 H       0  UNK0        0.0233
     58 H          45.2539    5.8251    5.0728 H       0  UNK0        0.0233
     59 H          44.9325    6.5064    6.6494 H       0  UNK0        0.0233
     60 H          41.2191   12.4052    9.7758 H       0  UNK0        0.0637
     61 H          42.6941   13.7858   11.1372 H       0  UNK0        0.0621
     62 H          45.5679   15.7170    9.7446 H       0  UNK0        0.0278
     63 H          45.2557   14.7384   11.1581 H       0  UNK0        0.0278
     64 H          44.2020   16.0780   10.7728 H       0  UNK0        0.0278
     65 H          45.0383   14.6495    7.7525 H       0  UNK0        0.0621
     66 H          43.6054   13.2372    6.4068 H       0  UNK0        0.0637
@<TRIPOS>BOND
     1     1     2    1
     2     2     3    1
     3    10     9    1
     4     9     8    1
     5     3     8   ar
     6     3     4   ar
     7     8     7   ar
     8     4     5   ar
     9     7     6   ar
    10    21    20    1
    11     5     6   ar
    12     6    11    1
    13    12    11    1
    14    12    13    1
    15    22    20    1
    16    20    16    1
    17    11    23    1
    18    33    15    1
    19    24    23    2
    20    13    15   am
    21    13    14    2
    22    15    16    1
    23    18    17    1
    24    16    17    1
    25    23    25    2
    26    23    26    1
    27    17    19    1
    28    32    26   ar
    29    32    31   ar
    30    26    27   ar
    31    31    29   ar
    32    27    28   ar
    33    29    28   ar
    34    29    30    1
    35     1    34    1
    36     1    35    1
    37     1    36    1
    38     4    37    1
    39     5    38    1
    40     7    39    1
    41    10    40    1
    42    10    41    1
    43    10    42    1
    44    12    43    1
    45    12    44    1
    46    16    45    1
    47    17    46    1
    48    18    47    1
    49    18    48    1
    50    18    49    1
    51    19    50    1
    52    19    51    1
    53    19    52    1
    54    20    53    1
    55    21    54    1
    56    21    55    1
    57    21    56    1
    58    22    57    1
    59    22    58    1
    60    22    59    1
    61    27    60    1
    62    28    61    1
    63    30    62    1
    64    30    63    1
    65    30    64    1
    66    31    65    1
    67    32    66    1
