@<TRIPOS>MOLECULE
    MOL
   66    67     0     0     0
SMALL
USER_CHARGES


@<TRIPOS>ATOM
      1 C1         44.2510   14.3780    0.9050 c3         0 MOL      0.079000
      2 O1         44.5900   13.0830    1.3940 os         0 MOL     -0.491500
      3 C2         43.9390   12.6860    2.5360 ca         0 MOL      0.161600
      4 C3         44.6280   11.7180    3.2770 ca         0 MOL     -0.014500
      5 C4         44.0760   11.1950    4.4510 ca         0 MOL     -0.035400
      6 C5         42.8180   11.6270    4.8920 ca         0 MOL      0.055500
      7 C6         42.1240   12.5710    4.1400 ca         0 MOL      0.006300
      8 C7         42.6690   13.1060    2.9670 ca         0 MOL      0.163300
      9 O2         41.9180   13.9030    2.1460 os         0 MOL     -0.491400
     10 C8         40.8760   13.2570    1.4240 c3         0 MOL      0.079000
     11 N1         42.0890   10.9470    5.9250 nh         0 MOL     -0.194100
     12 C9         41.5000    9.6170    5.5820 c3         0 MOL      0.111100
     13 C10        42.2650    8.4500    6.2040 za         0 MOL      0.232400
     14 O3         43.4150    8.6150    6.6120 zb         0 MOL     -0.274000
     15 N2         41.5960    7.2430    6.3130 ns         0 MOL     -0.310600
     16 C11        42.2340    6.0240    6.8140 c3         0 MOL      0.027800
     17 C12        41.2100    4.9830    7.3810 c3         0 MOL     -0.028000
     18 C13        40.1140    4.6260    6.3650 c3         0 MOL     -0.061000
     19 C14        41.7950    3.6710    7.9020 c3         0 MOL     -0.061000
     20 C15        43.2750    5.4310    5.8080 c3         0 MOL     -0.028000
     21 C16        42.7830    5.1520    4.3850 c3         0 MOL     -0.061000
     22 C17        44.5240    6.3210    5.6780 c3         0 MOL     -0.061000
     23 S1         41.0880   11.9560    6.9140 sy         0 MOL      0.075100
     24 O4         40.4440   12.9290    6.0860 zb         0 MOL     -0.149800
     25 O5         40.2910   11.0710    7.7670 zb         0 MOL     -0.149800
     26 C18        42.2610   12.7910    7.9710 ca         0 MOL      0.108700
     27 C19        42.0140   12.9020    9.3440 ca         0 MOL     -0.034800
     28 C20        42.8640   13.6990   10.1230 ca         0 MOL     -0.057000
     29 C21        43.9430   14.3800    9.5400 ca         0 MOL     -0.050300
     30 C22        44.8040   15.2940   10.3630 c3         0 MOL     -0.039700
     31 C23        44.2180   14.1920    8.1800 ca         0 MOL     -0.057000
     32 C24        43.3880   13.3900    7.4040 ca         0 MOL     -0.034800
     33 H1         40.6460    7.2080    5.9620 hn         0 MOL      0.149000
     34 H2         44.8134   14.5828    0.0181 h1         0 MOL      0.066000
     35 H3         44.4796   15.1116    1.6497 h1         0 MOL      0.066000
     36 H4         43.2054   14.4119    0.6801 h1         0 MOL      0.066000
     37 H5         45.5509   11.3877    2.9542 ha         0 MOL      0.065600
     38 H6         44.5968   10.4888    4.9941 ha         0 MOL      0.063800
     39 H7         41.1910   12.8819    4.4530 ha         0 MOL      0.067400
     40 H8         40.3616   13.9755    0.8206 h1         0 MOL      0.066000
     41 H9         40.1883   12.8115    2.1122 h1         0 MOL      0.066000
     42 H10        41.2944   12.4982    0.7963 h1         0 MOL      0.066000
     43 H11        41.5098    9.5034    4.5181 h1         0 MOL      0.057800
     44 H12        40.5052    9.5951    5.9756 h1         0 MOL      0.057800
     45 H13        42.8136    6.3126    7.6659 h1         0 MOL      0.050300
     46 H14        40.8111    5.5092    8.2230 hc         0 MOL      0.031300
     47 H15        40.5495    4.1024    5.5397 hc         0 MOL      0.023300
     48 H16        39.6484    5.5227    6.0128 hc         0 MOL      0.023300
     49 H17        39.3808    4.0043    6.8349 hc         0 MOL      0.023300
     50 H18        42.2054    3.1144    7.0855 hc         0 MOL      0.023300
     51 H19        41.0232    3.0981    8.3720 hc         0 MOL      0.023300
     52 H20        42.5661    3.8818    8.6133 hc         0 MOL      0.023300
     53 H21        43.4888    4.4852    6.2603 hc         0 MOL      0.031300
     54 H22        42.5578    6.0775    3.8976 hc         0 MOL      0.023300
     55 H23        41.9020    4.5461    4.4246 hc         0 MOL      0.023300
     56 H24        43.5455    4.6374    3.8385 hc         0 MOL      0.023300
     57 H25        44.2539    7.2502    5.2214 hc         0 MOL      0.023300
     58 H26        45.2539    5.8251    5.0728 hc         0 MOL      0.023300
     59 H27        44.9325    6.5064    6.6494 hc         0 MOL      0.023300
     60 H28        41.2191   12.4052    9.7758 ha         0 MOL      0.063700
     61 H29        42.6941   13.7858   11.1372 ha         0 MOL      0.062100
     62 H30        45.5679   15.7170    9.7446 hc         0 MOL      0.027800
     63 H31        45.2557   14.7384   11.1581 hc         0 MOL      0.027800
     64 H32        44.2020   16.0780   10.7728 hc         0 MOL      0.027800
     65 H33        45.0383   14.6495    7.7525 ha         0 MOL      0.062100
     66 H34        43.6054   13.2372    6.4068 ha         0 MOL      0.063700
@<TRIPOS>BOND
     1   16   45 un
     2   22   58 un
     3   21   56 un
     4   17   46 un
     5   11   12 un
     6   23   24 un
     7   26   32 un
     8    6    7 un
     9   29   30 un
    10   30   64 un
    11   10   42 un
    12    9   10 un
    13   16   17 un
    14   31   32 un
    15   20   53 un
    16   16   20 un
    17   18   47 un
    18   28   61 un
    19   22   57 un
    20    2    3 un
    21   17   18 un
    22    7    8 un
    23   29   31 un
    24   12   44 un
    25   13   14 un
    26    5   38 un
    27   10   41 un
    28   30   63 un
    29   19   50 un
    30   26   27 un
    31   18   49 un
    32   11   23 un
    33   28   29 un
    34   17   19 un
    35   20   22 un
    36    1   34 un
    37   12   43 un
    38   27   60 un
    39   13   15 un
    40   23   25 un
    41   30   62 un
    42    5    6 un
    43   21   54 un
    44   32   66 un
    45    3    4 un
    46   15   16 un
    47   19   51 un
    48   12   13 un
    49   20   21 un
    50    1   35 un
    51    4   37 un
    52    1    2 un
    53    3    8 un
    54    8    9 un
    55   23   26 un
    56    6   11 un
    57   27   28 un
    58   10   40 un
    59    7   39 un
    60   21   55 un
    61   22   59 un
    62   31   65 un
    63   19   52 un
    64   15   33 un
    65    1   36 un
    66    4    5 un
    67   18   48 un

