@<TRIPOS>MOLECULE
FXR_2
 46 49 0 0 0
SMALL
GASTEIGER
****
Structure written by MMmdl.
@<TRIPOS>ATOM
      1 C           2.0278    0.2279   -1.6728 C.3     1  UNL1       -0.0379
      2 C           3.1216    0.1387   -0.6460 C.ar    1  UNL1       -0.0290
      3 C           3.9796    1.2370   -0.4378 C.ar    1  UNL1       -0.0571
      4 C           5.1873    1.0858    0.2333 C.ar    1  UNL1       -0.0611
      5 C           5.6315   -0.1977    0.5032 C.ar    1  UNL1       -0.0571
      6 C           4.7751   -1.2881    0.2957 C.ar    1  UNL1       -0.0290
      7 C           5.3939   -2.6685    0.1905 C.3     1  UNL1       -0.0379
      8 C           3.4085   -1.0625   -0.0105 C.ar    1  UNL1        0.0383
      9 N           2.4549   -2.0202    0.3869 N.pl3   1  UNL1       -0.2983
     10 C           1.0944   -2.0925    0.5654 C.ar    1  UNL1        0.1357
     11 C           0.3810   -3.3063    0.5953 C.ar    1  UNL1        0.1174
     12 N          -0.9621   -3.1071    0.6372 N.ar    1  UNL1       -0.2256
     13 C          -1.1245   -1.8096    0.5971 C.ar    1  UNL1        0.1399
     14 C          -2.3514   -1.1121    0.4406 C.ar    1  UNL1       -0.0187
     15 C          -2.3772    0.2224    0.5173 C.ar    1  UNL1       -0.0567
     16 C          -1.1790    0.9522    0.8440 C.ar    1  UNL1       -0.0421
     17 C           0.0160    0.3244    0.9745 C.ar    1  UNL1        0.0238
     18 C           1.1559    1.1981    1.3907 C.3     1  UNL1       -0.0238
     19 N           0.0851   -1.0927    0.7400 N.ar    1  UNL1       -0.2845
     20 C           0.8920   -4.6615    0.4315 C.ar    1  UNL1        0.0740
     21 C           0.1887   -5.5751   -0.3544 C.ar    1  UNL1        0.1354
     22 F          -0.9507   -5.2354   -0.9797 F       1  UNL1       -0.2047
     23 C           0.6439   -6.8880   -0.5608 C.ar    1  UNL1       -0.0256
     24 C           1.8312   -7.3119    0.0385 C.ar    1  UNL1       -0.0563
     25 C           2.5499   -6.4240    0.8354 C.ar    1  UNL1       -0.0256
     26 C           2.0738   -5.1221    1.0322 C.ar    1  UNL1        0.1354
     27 F           2.7966   -4.3145    1.8230 F       1  UNL1       -0.2047
     28 H           2.1843   -0.5495   -2.4277 H       1  UNL1        0.0278
     29 H           2.0469    1.1949   -2.1828 H       1  UNL1        0.0278
     30 H           1.0298    0.0977   -1.2732 H       1  UNL1        0.0278
     31 H           3.7017    2.2211   -0.8032 H       1  UNL1        0.0621
     32 H           5.8269    1.9397    0.4312 H       1  UNL1        0.0618
     33 H           6.6540   -0.3518    0.8395 H       1  UNL1        0.0621
     34 H           6.4904   -2.6072    0.2093 H       1  UNL1        0.0278
     35 H           5.1340   -3.0853   -0.7940 H       1  UNL1        0.0278
     36 H           5.0641   -3.3352    0.9805 H       1  UNL1        0.0278
     37 H           2.9531   -2.8606    0.6798 H       1  UNL1        0.1536
     38 H          -3.2462   -1.6874    0.2328 H       1  UNL1        0.0654
     39 H          -3.3004    0.7733    0.3650 H       1  UNL1        0.0619
     40 H          -1.2825    2.0267    0.9726 H       1  UNL1        0.0635
     41 H           0.8181    1.9575    2.1097 H       1  UNL1        0.0292
     42 H           1.5149    1.7773    0.5355 H       1  UNL1        0.0292
     43 H           1.9646    0.6527    1.8742 H       1  UNL1        0.0292
     44 H           0.0653   -7.5633   -1.1804 H       1  UNL1        0.0646
     45 H           2.1915   -8.3232   -0.1194 H       1  UNL1        0.0619
     46 H           3.4694   -6.7351    1.3226 H       1  UNL1        0.0646
@<TRIPOS>BOND
     1     1     2    1
     2     2     8   ar
     3     2     3   ar
     4     3     4   ar
     5     4     5   ar
     6     5     6   ar
     7     6     7    1
     8     6     8   ar
     9     8     9    1
    10     9    10    1
    11    10    19   ar
    12    10    11   ar
    13    11    12   ar
    14    11    20    1
    15    12    13   ar
    16    13    19   ar
    17    13    14   ar
    18    14    15   ar
    19    15    16   ar
    20    16    17   ar
    21    17    18    1
    22    17    19   ar
    23    20    26   ar
    24    20    21   ar
    25    21    22    1
    26    21    23   ar
    27    23    24   ar
    28    24    25   ar
    29    25    26   ar
    30    26    27    1
    31     1    28    1
    32     1    29    1
    33     1    30    1
    34     3    31    1
    35     4    32    1
    36     5    33    1
    37     7    34    1
    38     7    35    1
    39     7    36    1
    40     9    37    1
    41    14    38    1
    42    15    39    1
    43    16    40    1
    44    18    41    1
    45    18    42    1
    46    18    43    1
    47    23    44    1
    48    24    45    1
    49    25    46    1
