@<TRIPOS>MOLECULE
FXR_4
 57 60 0 0 0
SMALL
GASTEIGER
****
Structure written by MMmdl.
@<TRIPOS>ATOM
      1 C           3.0659   -4.8609    2.0583 C.3     1  UNL1       -0.0029
      2 C           3.8087   -4.3101    0.9128 C.ar    1  UNL1        0.1469
      3 O           5.0122   -4.8985    0.7109 O.2     1  UNL1       -0.3586
      4 N           5.7198   -4.2230   -0.2395 N.ar    1  UNL1       -0.0772
      5 C           4.9535   -3.1905   -0.6388 C.ar    1  UNL1        0.1271
      6 C           5.5884   -2.2148   -1.5591 C.ar    1  UNL1        0.0228
      7 C           6.9101   -1.7794   -1.2881 C.ar    1  UNL1       -0.0497
      8 C           7.5605   -0.8338   -2.1007 C.ar    1  UNL1       -0.0427
      9 C           6.9001   -0.3016   -3.1989 C.ar    1  UNL1        0.0424
     10 CL          7.6402    0.9136   -4.1633 Cl      1  UNL1       -0.0835
     11 C           5.6405   -0.7691   -3.5351 C.ar    1  UNL1       -0.0244
     12 C           5.0104   -1.7394   -2.7410 C.ar    1  UNL1        0.0516
     13 CL          3.5704   -2.3716   -3.4079 Cl      1  UNL1       -0.0828
     14 C           3.6354   -3.2663    0.0209 C.ar    1  UNL1        0.1062
     15 C           2.4807   -2.3192   -0.0437 C.2     1  UNL1        0.2526
     16 O           2.7263   -1.1583   -0.3537 O.2     1  UNL1       -0.2698
     17 N           1.1220   -2.7515    0.2640 N.am    1  UNL1       -0.2913
     18 C           0.0760   -1.5758    0.3163 C.3     1  UNL1        0.0266
     19 C          -1.4638   -1.9376    0.3823 C.3     1  UNL1       -0.0343
     20 C          -2.2137   -1.7794    1.7039 C.3     1  UNL1       -0.0514
     21 C          -1.8157   -0.5733    2.5306 C.3     1  UNL1       -0.0529
     22 C          -0.3074   -0.3744    2.5826 C.3     1  UNL1       -0.0514
     23 C           0.3223   -0.3329    1.1973 C.3     1  UNL1       -0.0343
     24 C           0.5916   -3.8721   -0.5822 C.3     1  UNL1        0.0266
     25 C           0.3132   -3.3667   -2.0075 C.3     1  UNL1       -0.0343
     26 C           0.8992   -4.2165   -3.1029 C.3     1  UNL1       -0.0514
     27 C           0.4255   -5.6350   -2.9775 C.3     1  UNL1       -0.0529
     28 C           1.0598   -6.2234   -1.7235 C.3     1  UNL1       -0.0514
     29 C           0.7736   -5.4122   -0.4514 C.3     1  UNL1       -0.0343
     30 H           2.2171   -4.2338    2.3342 H       1  UNL1        0.0309
     31 H           3.7197   -4.9479    2.9335 H       1  UNL1        0.0309
     32 H           2.7158   -5.8721    1.8399 H       1  UNL1        0.0309
     33 H           7.4614   -2.1842   -0.4388 H       1  UNL1        0.0625
     34 H           8.5751   -0.5174   -1.8686 H       1  UNL1        0.0632
     35 H           5.1456   -0.3996   -4.4301 H       1  UNL1        0.0647
     36 H           0.1937   -1.1479   -0.6876 H       1  UNL1        0.0501
     37 H          -1.7510   -2.9208    0.0195 H       1  UNL1        0.0283
     38 H          -1.9536   -1.2792   -0.3457 H       1  UNL1        0.0283
     39 H          -2.1080   -2.6866    2.3050 H       1  UNL1        0.0266
     40 H          -3.2844   -1.6992    1.4745 H       1  UNL1        0.0266
     41 H          -2.2086   -0.6870    3.5454 H       1  UNL1        0.0265
     42 H          -2.2962    0.3225    2.1151 H       1  UNL1        0.0265
     43 H           0.1582   -1.1640    3.1768 H       1  UNL1        0.0266
     44 H          -0.1145    0.5804    3.0867 H       1  UNL1        0.0266
     45 H          -0.1653    0.5069    0.6730 H       1  UNL1        0.0283
     46 H           1.3748   -0.0542    1.2697 H       1  UNL1        0.0283
     47 H          -0.3598   -3.9272   -0.0802 H       1  UNL1        0.0501
     48 H           0.7027   -2.3573   -2.1641 H       1  UNL1        0.0283
     49 H          -0.7731   -3.2967   -2.1387 H       1  UNL1        0.0283
     50 H           1.9834   -4.2354   -3.0125 H       1  UNL1        0.0266
     51 H           0.6450   -3.7793   -4.0737 H       1  UNL1        0.0266
     52 H           0.7404   -6.1990   -3.8608 H       1  UNL1        0.0265
     53 H          -0.6688   -5.6703   -2.9307 H       1  UNL1        0.0265
     54 H           2.1443   -6.2995   -1.8607 H       1  UNL1        0.0266
     55 H           0.6871   -7.2479   -1.5997 H       1  UNL1        0.0266
     56 H          -0.2158   -5.8039   -0.1458 H       1  UNL1        0.0283
     57 H           1.4154   -5.7294    0.3586 H       1  UNL1        0.0283
@<TRIPOS>BOND
     1     1     2    1
     2     2    14   ar
     3     2     3   ar
     4     3     4   ar
     5     4     5   ar
     6     5     6    1
     7     5    14   ar
     8     6    12   ar
     9     6     7   ar
    10     7     8   ar
    11     8     9   ar
    12     9    10    1
    13     9    11   ar
    14    11    12   ar
    15    12    13    1
    16    14    15    1
    17    15    16    2
    18    15    17   am
    19    17    18    1
    20    17    24    1
    21    18    23    1
    22    18    19    1
    23    19    20    1
    24    20    21    1
    25    21    22    1
    26    22    23    1
    27    24    29    1
    28    24    25    1
    29    25    26    1
    30    26    27    1
    31    27    28    1
    32    28    29    1
    33     1    30    1
    34     1    31    1
    35     1    32    1
    36     7    33    1
    37     8    34    1
    38    11    35    1
    39    18    36    1
    40    19    37    1
    41    19    38    1
    42    20    39    1
    43    20    40    1
    44    21    41    1
    45    21    42    1
    46    22    43    1
    47    22    44    1
    48    23    45    1
    49    23    46    1
    50    24    47    1
    51    25    48    1
    52    25    49    1
    53    26    50    1
    54    26    51    1
    55    27    52    1
    56    27    53    1
    57    28    54    1
    58    28    55    1
    59    29    56    1
    60    29    57    1
