@<TRIPOS>MOLECULE
FXR_8
 68 72 0 0 0
SMALL
GASTEIGER
****
Structure written by MMmdl.
@<TRIPOS>ATOM
      1 C           1.6838    0.3470    1.2355 C.ar    1  UNL1        0.1425
      2 N           1.5290    1.2140    0.1460 N.ar    1  UNL1       -0.3113
      3 C           1.9338    2.6354    0.0655 C.3     1  UNL1        0.1151
      4 C           3.2019    2.8913   -0.8021 C.2     1  UNL1        0.2365
      5 O           3.7967    3.9704   -0.7485 O.2     1  UNL1       -0.2735
      6 N           3.6602    1.9074   -1.6394 N.am    1  UNL1       -0.3107
      7 C           4.7631    2.1189   -2.5911 C.3     1  UNL1        0.0232
      8 C           5.1117    0.7942   -3.2806 C.3     1  UNL1       -0.0345
      9 C           3.9189    0.2680   -4.0812 C.3     1  UNL1       -0.0514
     10 C           3.4032    1.2914   -5.0932 C.3     1  UNL1       -0.0529
     11 C           3.2050    2.6892   -4.5062 C.3     1  UNL1       -0.0514
     12 C           4.4082    3.1458   -3.6832 C.3     1  UNL1       -0.0345
     13 C           0.7429    3.6109   -0.2722 C.3     1  UNL1       -0.0116
     14 C          -0.5946    3.3145    0.4691 C.3     1  UNL1       -0.0479
     15 C          -0.8679    4.0924    1.7600 C.3     1  UNL1       -0.0527
     16 C          -0.5612    5.5732    1.6246 C.3     1  UNL1       -0.0530
     17 C           0.8783    5.7544    1.1800 C.3     1  UNL1       -0.0527
     18 C           1.0817    5.1205   -0.1893 C.3     1  UNL1       -0.0479
     19 C           0.9260    0.4813   -0.8785 C.ar    1  UNL1        0.0698
     20 C           0.8145   -0.8093   -0.3708 C.ar    1  UNL1        0.0897
     21 N           1.2871   -0.8710    0.9031 N.ar    1  UNL1       -0.2275
     22 C           0.2820   -1.8445   -1.1587 C.ar    1  UNL1       -0.0342
     23 C          -0.1623   -1.5496   -2.4493 C.ar    1  UNL1       -0.0596
     24 C          -0.0673   -0.2521   -2.9455 C.ar    1  UNL1       -0.0597
     25 C           0.4856    0.7836   -2.1773 C.ar    1  UNL1       -0.0360
     26 C           2.3147    0.6245    2.5377 C.ar    1  UNL1        0.0175
     27 C           2.2450    1.8553    3.1907 C.ar    1  UNL1       -0.0508
     28 C           3.0599    2.1500    4.2885 C.ar    1  UNL1       -0.0557
     29 C           3.9009    1.1667    4.8145 C.ar    1  UNL1       -0.0221
     30 C           3.8337   -0.1275    4.2939 C.ar    1  UNL1       -0.0557
     31 C           3.0460   -0.3927    3.1688 C.ar    1  UNL1       -0.0508
     32 C           4.9277    1.5476    5.8540 C.3     1  UNL1        0.0692
     33 O           5.1306    0.5266    6.8193 O.3     1  UNL1       -0.3904
     34 H           2.2981    2.9149    1.0471 H       1  UNL1        0.0627
     35 H           3.4151    0.9478   -1.4289 H       1  UNL1        0.1490
     36 H           5.6301    2.4819   -2.0253 H       1  UNL1        0.0498
     37 H           5.4170    0.0491   -2.5373 H       1  UNL1        0.0283
     38 H           5.9662    0.9406   -3.9550 H       1  UNL1        0.0283
     39 H           3.1089   -0.0011   -3.3950 H       1  UNL1        0.0266
     40 H           4.1982   -0.6564   -4.5973 H       1  UNL1        0.0266
     41 H           2.4547    0.9388   -5.5146 H       1  UNL1        0.0265
     42 H           4.1159    1.3550   -5.9230 H       1  UNL1        0.0265
     43 H           2.3108    2.7021   -3.8743 H       1  UNL1        0.0266
     44 H           3.0182    3.4035   -5.3165 H       1  UNL1        0.0266
     45 H           5.2692    3.2758   -4.3534 H       1  UNL1        0.0283
     46 H           4.2047    4.1330   -3.2550 H       1  UNL1        0.0283
     47 H           0.5368    3.4445   -1.3348 H       1  UNL1        0.0325
     48 H          -0.7235    2.2488    0.6801 H       1  UNL1        0.0269
     49 H          -1.4051    3.5672   -0.2273 H       1  UNL1        0.0269
     50 H          -0.2844    3.6778    2.5865 H       1  UNL1        0.0265
     51 H          -1.9215    3.9688    2.0395 H       1  UNL1        0.0265
     52 H          -0.7304    6.0852    2.5783 H       1  UNL1        0.0265
     53 H          -1.2402    6.0301    0.8931 H       1  UNL1        0.0265
     54 H           1.5638    5.3163    1.9148 H       1  UNL1        0.0265
     55 H           1.1089    6.8245    1.1221 H       1  UNL1        0.0265
     56 H           0.4297    5.6432   -0.9014 H       1  UNL1        0.0269
     57 H           2.0911    5.3475   -0.5267 H       1  UNL1        0.0269
     58 H           0.2161   -2.8497   -0.7604 H       1  UNL1        0.0639
     59 H          -0.5845   -2.3404   -3.0657 H       1  UNL1        0.0618
     60 H          -0.4261   -0.0387   -3.9511 H       1  UNL1        0.0618
     61 H           0.5607    1.7753   -2.6033 H       1  UNL1        0.0639
     62 H           1.5825    2.6431    2.8493 H       1  UNL1        0.0625
     63 H           3.0687    3.1585    4.6824 H       1  UNL1        0.0621
     64 H           4.4332   -0.9293    4.7233 H       1  UNL1        0.0621
     65 H           3.0380   -1.4008    2.7570 H       1  UNL1        0.0625
     66 H           4.6240    2.4541    6.3886 H       1  UNL1        0.0607
     67 H           5.8808    1.7530    5.3544 H       1  UNL1        0.0607
     68 H           4.2491    0.1910    7.0598 H       1  UNL1        0.2098
@<TRIPOS>BOND
     1     1    21   ar
     2     1     2   ar
     3     1    26    1
     4     2     3    1
     5     2    19   ar
     6     3     4    1
     7     3    13    1
     8     4     5    2
     9     4     6   am
    10     6     7    1
    11     7    12    1
    12     7     8    1
    13     8     9    1
    14     9    10    1
    15    10    11    1
    16    11    12    1
    17    13    18    1
    18    13    14    1
    19    14    15    1
    20    15    16    1
    21    16    17    1
    22    17    18    1
    23    19    25   ar
    24    19    20   ar
    25    20    21   ar
    26    20    22   ar
    27    22    23   ar
    28    23    24   ar
    29    24    25   ar
    30    26    31   ar
    31    26    27   ar
    32    27    28   ar
    33    28    29   ar
    34    29    30   ar
    35    29    32    1
    36    30    31   ar
    37    32    33    1
    38     3    34    1
    39     6    35    1
    40     7    36    1
    41     8    37    1
    42     8    38    1
    43     9    39    1
    44     9    40    1
    45    10    41    1
    46    10    42    1
    47    11    43    1
    48    11    44    1
    49    12    45    1
    50    12    46    1
    51    13    47    1
    52    14    48    1
    53    14    49    1
    54    15    50    1
    55    15    51    1
    56    16    52    1
    57    16    53    1
    58    17    54    1
    59    17    55    1
    60    18    56    1
    61    18    57    1
    62    22    58    1
    63    23    59    1
    64    24    60    1
    65    25    61    1
    66    27    62    1
    67    28    63    1
    68    30    64    1
    69    31    65    1
    70    32    66    1
    71    32    67    1
    72    33    68    1
