@<TRIPOS>MOLECULE
FXR_10
 55 59 0 0 0
SMALL
GASTEIGER
****
Structure written by MMmdl.
@<TRIPOS>ATOM
      1 O          -0.6779    8.2735   -3.5186 O.3     1  UNL1       -0.4771
      2 C          -0.3324    7.3442   -2.6043 C.2     1  UNL1        0.3368
      3 O          -0.8855    7.2336   -1.5256 O.2     1  UNL1       -0.2451
      4 C           0.7774    6.4527   -3.0307 C.ar    1  UNL1        0.0589
      5 C           0.8170    5.1595   -2.4981 C.ar    1  UNL1       -0.0475
      6 C           1.9291    4.3446   -2.7141 C.ar    1  UNL1       -0.0563
      7 C           3.0217    4.8189   -3.4540 C.ar    1  UNL1       -0.0297
      8 C           4.3368    4.0798   -3.4057 C.3     1  UNL1        0.0448
      9 N           4.8508    3.6288   -4.6732 N.am    1  UNL1       -0.2661
     10 C           5.7929    4.3612   -5.3986 C.2     1  UNL1        0.2307
     11 O           6.1265    5.5212   -5.2033 O.2     1  UNL1       -0.2743
     12 C           6.3762    3.4343   -6.4924 C.3     1  UNL1        0.0765
     13 C           7.9107    3.4128   -6.3550 C.3     1  UNL1       -0.0204
     14 C           8.5947    4.5777   -7.0690 C.3     1  UNL1        0.0218
     15 N           8.0680    4.7574   -8.4406 N.3     1  UNL1       -0.1760
     16 C           6.6228    5.0686   -8.4222 C.3     1  UNL1        0.0218
     17 C           5.8430    3.8892   -7.8629 C.3     1  UNL1       -0.0204
     18 S           8.5658    3.6619   -9.6478 S.O2    1  UNL1        0.0671
     19 O           8.4261    2.3139   -9.1362 O.2     1  UNL1       -0.1523
     20 O           7.9526    4.0460  -10.8996 O.2     1  UNL1       -0.1523
     21 C          10.3163    3.8625   -9.9002 C.ar    1  UNL1        0.1426
     22 C          11.3823    2.9981   -9.7331 C.ar    1  UNL1       -0.0281
     23 C          12.6210    3.5874  -10.1151 C.ar    1  UNL1       -0.0528
     24 C          12.4595    4.8848  -10.5487 C.ar    1  UNL1       -0.0224
     25 S          10.8277    5.3926  -10.4671 S.2     1  UNL1       -0.0770
     26 C           5.7420    2.1075   -6.1209 C.ar    1  UNL1       -0.0099
     27 C           5.9782    0.8407   -6.6408 C.ar    1  UNL1       -0.0418
     28 C           5.2448   -0.2275   -6.1215 C.ar    1  UNL1        0.0183
     29 BR          5.5717   -1.9792   -6.7550 Br      1  UNL1       -0.0503
     30 C           4.2757   -0.0262   -5.1259 C.ar    1  UNL1       -0.0460
     31 C           4.0542    1.2504   -4.6020 C.ar    1  UNL1       -0.0389
     32 C           4.8147    2.2964   -5.0966 C.ar    1  UNL1        0.0409
     33 C           2.9350    6.0800   -4.0630 C.ar    1  UNL1       -0.0563
     34 C           1.8270    6.9021   -3.8399 C.ar    1  UNL1       -0.0475
     35 H          -0.2795    8.1525   -4.3985 H       1  UNL1        0.2954
     36 H           0.0076    4.8062   -1.8609 H       1  UNL1        0.0626
     37 H           1.9652    3.3681   -2.2349 H       1  UNL1        0.0621
     38 H           4.2794    3.2318   -2.7131 H       1  UNL1        0.0518
     39 H           5.0736    4.7611   -2.9579 H       1  UNL1        0.0518
     40 H           8.3198    2.4722   -6.7372 H       1  UNL1        0.0291
     41 H           8.2021    3.4335   -5.2958 H       1  UNL1        0.0291
     42 H           9.6809    4.4344   -7.0919 H       1  UNL1        0.0444
     43 H           8.4352    5.5084   -6.5130 H       1  UNL1        0.0444
     44 H           6.2718    5.3248   -9.4270 H       1  UNL1        0.0444
     45 H           6.4581    5.9689   -7.8173 H       1  UNL1        0.0444
     46 H           4.7828    4.1694   -7.7943 H       1  UNL1        0.0291
     47 H           5.8855    3.0608   -8.5809 H       1  UNL1        0.0291
     48 H          11.2628    1.9813   -9.3747 H       1  UNL1        0.0642
     49 H          13.5791    3.0830  -10.0863 H       1  UNL1        0.0623
     50 H          13.2195    5.5636  -10.9106 H       1  UNL1        0.0694
     51 H           6.7198    0.6863   -7.4200 H       1  UNL1        0.0632
     52 H           3.6967   -0.8655   -4.7473 H       1  UNL1        0.0629
     53 H           3.3029    1.3988   -3.8354 H       1  UNL1        0.0637
     54 H           3.7728    6.4678   -4.6410 H       1  UNL1        0.0621
     55 H           1.8504    7.9147   -4.2336 H       1  UNL1        0.0626
@<TRIPOS>BOND
     1     1     2    1
     2     2     3    2
     3     2     4    1
     4     4    34   ar
     5     4     5   ar
     6     5     6   ar
     7     6     7   ar
     8     7     8    1
     9     7    33   ar
    10     8     9    1
    11     9    32    1
    12     9    10   am
    13    10    11    2
    14    10    12    1
    15    12    17    1
    16    12    13    1
    17    12    26    1
    18    13    14    1
    19    14    15    1
    20    15    16    1
    21    15    18    1
    22    16    17    1
    23    18    19    2
    24    18    20    2
    25    18    21    1
    26    21    25   ar
    27    21    22   ar
    28    22    23   ar
    29    23    24   ar
    30    24    25   ar
    31    26    32   ar
    32    26    27   ar
    33    27    28   ar
    34    28    29    1
    35    28    30   ar
    36    30    31   ar
    37    31    32   ar
    38    33    34   ar
    39     1    35    1
    40     5    36    1
    41     6    37    1
    42     8    38    1
    43     8    39    1
    44    13    40    1
    45    13    41    1
    46    14    42    1
    47    14    43    1
    48    16    44    1
    49    16    45    1
    50    17    46    1
    51    17    47    1
    52    22    48    1
    53    23    49    1
    54    24    50    1
    55    27    51    1
    56    30    52    1
    57    31    53    1
    58    33    54    1
    59    34    55    1
