@<TRIPOS>MOLECULE
FXR_7
 71 76 0 0 0
SMALL
GASTEIGER
****
Structure written by MMmdl.
@<TRIPOS>ATOM
      1 O           2.6708    0.3765   -3.2871 O.2     1  UNL1       -0.2735
      2 C           2.9145   -0.6169   -2.6161 C.2     1  UNL1        0.2365
      3 N           2.9410   -1.9000   -3.1631 N.am    1  UNL1       -0.3107
      4 C           2.6400   -2.2054   -4.5662 C.3     1  UNL1        0.0232
      5 C           3.8966   -2.2349   -5.4516 C.3     1  UNL1       -0.0345
      6 C           4.7555   -3.4951   -5.2966 C.3     1  UNL1       -0.0514
      7 C           3.9477   -4.7860   -5.3636 C.3     1  UNL1       -0.0529
      8 C           2.7566   -4.7533   -4.4136 C.3     1  UNL1       -0.0514
      9 C           1.8734   -3.5342   -4.6801 C.3     1  UNL1       -0.0345
     10 C           3.2195   -0.5849   -1.1022 C.3     1  UNL1        0.1151
     11 C           2.3321    0.2284   -0.0967 C.3     1  UNL1       -0.0116
     12 C           2.7253    1.6669    0.2524 C.3     1  UNL1       -0.0479
     13 C           2.2589    2.6809   -0.7778 C.3     1  UNL1       -0.0527
     14 C           0.7528    2.6139   -0.9880 C.3     1  UNL1       -0.0530
     15 C           0.2863    1.2054   -1.3420 C.3     1  UNL1       -0.0527
     16 C           0.8140    0.1480   -0.3730 C.3     1  UNL1       -0.0479
     17 N           4.6700   -0.5515   -0.8513 N.ar    1  UNL1       -0.3109
     18 C           5.5571    0.4132   -1.3101 C.ar    1  UNL1        0.0698
     19 C           5.4441    1.5339   -2.1472 C.ar    1  UNL1       -0.0360
     20 C           6.5878    2.3119   -2.3704 C.ar    1  UNL1       -0.0597
     21 C           7.8106    1.9771   -1.7958 C.ar    1  UNL1       -0.0596
     22 C           7.9179    0.8507   -0.9758 C.ar    1  UNL1       -0.0342
     23 C           6.7769    0.0688   -0.7353 C.ar    1  UNL1        0.0897
     24 N           6.6640   -1.0687    0.0109 N.ar    1  UNL1       -0.2270
     25 C           5.4190   -1.4778   -0.1279 C.ar    1  UNL1        0.1492
     26 C           4.9974   -2.7329    0.4407 C.ar    1  UNL1        0.0552
     27 C           5.4901   -3.3308    1.5875 C.ar    1  UNL1       -0.0434
     28 C           4.7960   -4.5395    1.9189 C.ar    1  UNL1       -0.0463
     29 C           3.8045   -4.8322    1.0044 C.ar    1  UNL1        0.0200
     30 S           3.9388   -3.8049   -0.3563 S.2     1  UNL1       -0.0852
     31 C           2.7847   -5.8878    0.9721 C.ar    1  UNL1       -0.0113
     32 C           3.1029   -7.2014    1.3286 C.ar    1  UNL1       -0.0535
     33 C           2.1549   -8.2189    1.1881 C.ar    1  UNL1       -0.0612
     34 C           0.8800   -7.9330    0.6978 C.ar    1  UNL1       -0.0617
     35 C           0.5344   -6.6237    0.3807 C.ar    1  UNL1       -0.0612
     36 C           1.4777   -5.6064    0.5302 C.ar    1  UNL1       -0.0535
     37 H           3.2938   -2.6604   -2.5983 H       1  UNL1        0.1490
     38 H           1.9881   -1.4042   -4.9345 H       1  UNL1        0.0498
     39 H           4.5125   -1.3507   -5.2723 H       1  UNL1        0.0283
     40 H           3.5741   -2.1797   -6.5012 H       1  UNL1        0.0283
     41 H           5.2941   -3.4522   -4.3432 H       1  UNL1        0.0266
     42 H           5.5161   -3.5119   -6.0873 H       1  UNL1        0.0266
     43 H           4.5951   -5.6382   -5.1196 H       1  UNL1        0.0265
     44 H           3.5889   -4.9466   -6.3885 H       1  UNL1        0.0265
     45 H           3.1147   -4.7447   -3.3787 H       1  UNL1        0.0266
     46 H           2.1678   -5.6699   -4.5313 H       1  UNL1        0.0266
     47 H           1.4649   -3.6218   -5.6950 H       1  UNL1        0.0283
     48 H           1.0213   -3.5434   -3.9920 H       1  UNL1        0.0283
     49 H           2.9058   -1.5847   -0.8132 H       1  UNL1        0.0627
     50 H           2.4726   -0.3152    0.8544 H       1  UNL1        0.0325
     51 H           3.7974    1.7591    0.4422 H       1  UNL1        0.0269
     52 H           2.2449    1.9222    1.2097 H       1  UNL1        0.0269
     53 H           2.7574    2.5111   -1.7299 H       1  UNL1        0.0265
     54 H           2.5380    3.6887   -0.4478 H       1  UNL1        0.0265
     55 H           0.4668    3.3073   -1.7880 H       1  UNL1        0.0265
     56 H           0.2396    2.9509   -0.0789 H       1  UNL1        0.0265
     57 H           0.5887    0.9667   -2.3614 H       1  UNL1        0.0265
     58 H          -0.8113    1.1806   -1.3464 H       1  UNL1        0.0265
     59 H           0.2906    0.2966    0.5835 H       1  UNL1        0.0269
     60 H           0.5306   -0.8522   -0.7149 H       1  UNL1        0.0269
     61 H           4.5173    1.8072   -2.6344 H       1  UNL1        0.0639
     62 H           6.5171    3.1890   -3.0113 H       1  UNL1        0.0618
     63 H           8.6873    2.5894   -1.9893 H       1  UNL1        0.0618
     64 H           8.8693    0.5701   -0.5371 H       1  UNL1        0.0639
     65 H           6.2886   -2.8994    2.1814 H       1  UNL1        0.0630
     66 H           4.9984   -5.1315    2.8041 H       1  UNL1        0.0629
     67 H           4.0990   -7.4529    1.6842 H       1  UNL1        0.0624
     68 H           2.4187   -9.2414    1.4403 H       1  UNL1        0.0618
     69 H           0.1578   -8.7330    0.5594 H       1  UNL1        0.0618
     70 H          -0.4590   -6.3951    0.0021 H       1  UNL1        0.0618
     71 H           1.1823   -4.5906    0.2785 H       1  UNL1        0.0624
@<TRIPOS>BOND
     1     1     2    2
     2     2     3   am
     3     3     4    1
     4     4     9    1
     5     4     5    1
     6     5     6    1
     7     6     7    1
     8     7     8    1
     9     8     9    1
    10    10    17    1
    11    11    16    1
    12    11    12    1
    13    12    13    1
    14    13    14    1
    15    14    15    1
    16    15    16    1
    17    17    25   ar
    18    17    18   ar
    19    18    23   ar
    20    18    19   ar
    21    19    20   ar
    22    20    21   ar
    23    21    22   ar
    24    22    23   ar
    25    23    24   ar
    26    24    25   ar
    27    25    26    1
    28    26    30   ar
    29    26    27   ar
    30    27    28   ar
    31    28    29   ar
    32    29    30   ar
    33    29    31    1
    34    31    36   ar
    35    31    32   ar
    36    32    33   ar
    37    33    34   ar
    38    34    35   ar
    39    35    36   ar
    40    10    11    1
    41    10     2    1
    42     3    37    1
    43     4    38    1
    44     5    39    1
    45     5    40    1
    46     6    41    1
    47     6    42    1
    48     7    43    1
    49     7    44    1
    50     8    45    1
    51     8    46    1
    52     9    47    1
    53     9    48    1
    54    10    49    1
    55    11    50    1
    56    12    51    1
    57    12    52    1
    58    13    53    1
    59    13    54    1
    60    14    55    1
    61    14    56    1
    62    15    57    1
    63    15    58    1
    64    16    59    1
    65    16    60    1
    66    19    61    1
    67    20    62    1
    68    21    63    1
    69    22    64    1
    70    27    65    1
    71    28    66    1
    72    32    67    1
    73    33    68    1
    74    34    69    1
    75    35    70    1
    76    36    71    1
