@<TRIPOS>MOLECULE
FXR_6
 72 76 0 0 0
SMALL
GASTEIGER
****
Structure written by MMmdl.
@<TRIPOS>ATOM
      1 O           3.0732    0.6287   -0.7570 O.2     1  UNL1       -0.2735
      2 C           2.9601    0.7558    0.4422 C.2     1  UNL1        0.2365
      3 N           2.5877    1.9714    1.0453 N.am    1  UNL1       -0.3107
      4 C           2.2635    3.1934    0.3023 C.3     1  UNL1        0.0232
      5 C           0.7585    3.3194    0.0054 C.3     1  UNL1       -0.0345
      6 C          -0.0741    3.5292    1.2713 C.3     1  UNL1       -0.0514
      7 C           0.4045    4.7397    2.0687 C.3     1  UNL1       -0.0529
      8 C           1.9054    4.6982    2.3434 C.3     1  UNL1       -0.0514
      9 C           2.7278    4.4363    1.0781 C.3     1  UNL1       -0.0345
     10 C           3.1383   -0.3991    1.4586 C.3     1  UNL1        0.1151
     11 C           2.1019   -1.6013    1.2982 C.3     1  UNL1       -0.0116
     12 C           0.6560   -1.1566    1.6231 C.3     1  UNL1       -0.0479
     13 C          -0.0793   -0.5420    0.4368 C.3     1  UNL1       -0.0527
     14 C          -0.1235   -1.4546   -0.7799 C.3     1  UNL1       -0.0530
     15 C           1.2233   -2.0807   -1.1243 C.3     1  UNL1       -0.0527
     16 C           2.0289   -2.5501    0.0848 C.3     1  UNL1       -0.0479
     17 N           4.5662   -0.7349    1.7332 N.ar    1  UNL1       -0.3112
     18 C           5.4409   -1.2881    0.8048 C.ar    1  UNL1        0.0698
     19 C           5.3285   -1.6168   -0.5527 C.ar    1  UNL1       -0.0360
     20 C           6.4192   -2.2397   -1.1695 C.ar    1  UNL1       -0.0597
     21 C           7.5878   -2.5173   -0.4564 C.ar    1  UNL1       -0.0596
     22 C           7.7172   -2.1122    0.8750 C.ar    1  UNL1       -0.0342
     23 C           6.6345   -1.4724    1.4944 C.ar    1  UNL1        0.0897
     24 N           6.5588   -0.9773    2.7552 N.ar    1  UNL1       -0.2274
     25 C           5.3062   -0.5904    2.9399 C.ar    1  UNL1        0.1461
     26 C           4.8437   -0.1948    4.2974 C.ar    1  UNL1        0.0593
     27 C           5.6969    0.3760    5.2570 C.ar    1  UNL1       -0.0441
     28 C           5.2408    0.6498    6.5665 C.ar    1  UNL1       -0.0191
     29 C           3.8907    0.4879    6.8763 C.ar    1  UNL1        0.1236
     30 O           3.2788    0.7932    8.0591 O.3     1  UNL1       -0.4950
     31 C           4.0612    0.6349    9.2373 C.3     1  UNL1        0.0788
     32 C           3.0507   -0.0874    5.9332 C.ar    1  UNL1        0.0225
     33 C           3.6028   -0.6111    4.7707 C.ar    1  UNL1        0.1342
     34 O           3.1186   -1.7075    4.1224 O.3     1  UNL1       -0.4943
     35 C           2.0507   -2.4226    4.7026 C.3     1  UNL1        0.0788
     36 H           2.4538    2.0013    2.0479 H       1  UNL1        0.1490
     37 H           2.8015    3.1514   -0.6512 H       1  UNL1        0.0498
     38 H           0.3912    2.4466   -0.5410 H       1  UNL1        0.0283
     39 H           0.6001    4.1826   -0.6566 H       1  UNL1        0.0283
     40 H          -0.0269    2.6319    1.9006 H       1  UNL1        0.0266
     41 H          -1.1273    3.6687    1.0008 H       1  UNL1        0.0266
     42 H          -0.1414    4.7942    3.0184 H       1  UNL1        0.0265
     43 H           0.1628    5.6559    1.5157 H       1  UNL1        0.0265
     44 H           2.1154    3.9227    3.0890 H       1  UNL1        0.0266
     45 H           2.2177    5.6495    2.7897 H       1  UNL1        0.0266
     46 H           2.6447    5.3135    0.4225 H       1  UNL1        0.0283
     47 H           3.7855    4.3394    1.3479 H       1  UNL1        0.0283
     48 H           2.8410    0.0522    2.4090 H       1  UNL1        0.0627
     49 H           2.3903   -2.2942    2.0909 H       1  UNL1        0.0325
     50 H           0.6433   -0.4564    2.4649 H       1  UNL1        0.0269
     51 H           0.0872   -2.0368    1.9544 H       1  UNL1        0.0269
     52 H           0.3926    0.3978    0.1568 H       1  UNL1        0.0265
     53 H          -1.1040   -0.2889    0.7357 H       1  UNL1        0.0265
     54 H          -0.4888   -0.8853   -1.6460 H       1  UNL1        0.0265
     55 H          -0.8649   -2.2446   -0.6042 H       1  UNL1        0.0265
     56 H           1.8185   -1.3850   -1.7200 H       1  UNL1        0.0265
     57 H           1.0311   -2.9458   -1.7749 H       1  UNL1        0.0265
     58 H           1.5083   -3.4546    0.4432 H       1  UNL1        0.0269
     59 H           3.0102   -2.9158   -0.2170 H       1  UNL1        0.0269
     60 H           4.4276   -1.4102   -1.1199 H       1  UNL1        0.0639
     61 H           6.3462   -2.5392   -2.2103 H       1  UNL1        0.0618
     62 H           8.4163   -3.0395   -0.9362 H       1  UNL1        0.0618
     63 H           8.6263   -2.2947    1.4395 H       1  UNL1        0.0639
     64 H           6.7519    0.5253    5.0224 H       1  UNL1        0.0627
     65 H           5.9542    0.9733    7.3185 H       1  UNL1        0.0654
     66 H           3.3763    0.6570   10.0933 H       1  UNL1        0.0660
     67 H           4.7598    1.4669    9.3467 H       1  UNL1        0.0660
     68 H           4.5833   -0.3277    9.2545 H       1  UNL1        0.0660
     69 H           2.0069   -0.2422    6.1840 H       1  UNL1        0.0691
     70 H           2.1526   -2.5781    5.7801 H       1  UNL1        0.0660
     71 H           2.0323   -3.4048    4.2217 H       1  UNL1        0.0660
     72 H           1.1346   -1.8895    4.4531 H       1  UNL1        0.0660
@<TRIPOS>BOND
     1     1     2    2
     2     2     3   am
     3     2    10    1
     4     3     4    1
     5     4     9    1
     6     4     5    1
     7     5     6    1
     8     6     7    1
     9     7     8    1
    10     8     9    1
    11    10    11    1
    12    10    17    1
    13    11    16    1
    14    11    12    1
    15    12    13    1
    16    13    14    1
    17    14    15    1
    18    15    16    1
    19    17    25   ar
    20    17    18   ar
    21    18    23   ar
    22    18    19   ar
    23    19    20   ar
    24    20    21   ar
    25    21    22   ar
    26    22    23   ar
    27    23    24   ar
    28    24    25   ar
    29    25    26    1
    30    26    33   ar
    31    26    27   ar
    32    27    28   ar
    33    28    29   ar
    34    29    30    1
    35    29    32   ar
    36    30    31    1
    37    32    33   ar
    38    33    34    1
    39    34    35    1
    40     3    36    1
    41     4    37    1
    42     5    38    1
    43     5    39    1
    44     6    40    1
    45     6    41    1
    46     7    42    1
    47     7    43    1
    48     8    44    1
    49     8    45    1
    50     9    46    1
    51     9    47    1
    52    10    48    1
    53    11    49    1
    54    12    50    1
    55    12    51    1
    56    13    52    1
    57    13    53    1
    58    14    54    1
    59    14    55    1
    60    15    56    1
    61    15    57    1
    62    16    58    1
    63    16    59    1
    64    19    60    1
    65    20    61    1
    66    21    62    1
    67    22    63    1
    68    27    64    1
    69    28    65    1
    70    31    66    1
    71    31    67    1
    72    31    68    1
    73    32    69    1
    74    35    70    1
    75    35    71    1
    76    35    72    1
