@<TRIPOS>MOLECULE
FXR_5
 53 56 0 0 0
SMALL
GASTEIGER
****
Structure written by MMmdl.
@<TRIPOS>ATOM
      1 C           6.3347   -1.2300   -0.6662 C.3     1  UNL1       -0.0306
      2 C           4.9130   -1.2811   -1.1975 C.3     1  UNL1        0.0900
      3 O           4.7623   -0.2261   -2.1643 O.3     1  UNL1       -0.4614
      4 C           4.2294    0.9223   -1.6735 C.2     1  UNL1        0.3424
      5 O           3.6453    1.0151   -0.6006 O.2     1  UNL1       -0.2448
      6 C           4.5605    2.1059   -2.5362 C.2     1  UNL1        0.0965
      7 C           4.5301    3.2780   -1.8331 C.2     1  UNL1        0.0156
      8 N           4.8091    4.5654   -2.3009 N.am    1  UNL1       -0.2723
      9 C           4.6021    4.8183   -3.7222 C.3     1  UNL1        0.0288
     10 C           5.8095    4.4275   -4.6008 C.3     1  UNL1        0.0088
     11 C           5.3457    4.8209   -6.0421 C.3     1  UNL1       -0.0542
     12 C           7.0939    5.1793   -4.2265 C.3     1  UNL1       -0.0542
     13 C           6.0211    2.9400   -4.4873 C.ar    1  UNL1       -0.0070
     14 C           5.2275    2.0251   -3.8065 C.ar    1  UNL1        0.0594
     15 N           5.1319    1.0147   -4.7817 N.ar    1  UNL1       -0.3537
     16 C           6.0231    1.3750   -5.8008 C.ar    1  UNL1        0.0472
     17 C           6.0197    1.4597   -7.2150 C.ar    1  UNL1       -0.0378
     18 C           7.0105    2.3123   -7.7764 C.ar    1  UNL1       -0.0598
     19 C           8.0835    2.7735   -7.0167 C.ar    1  UNL1       -0.0611
     20 C           8.2174    2.2770   -5.7325 C.ar    1  UNL1       -0.0523
     21 C           6.9879    2.0827   -5.0746 C.ar    1  UNL1        0.0040
     22 C           5.1173    5.7282   -1.5649 C.2     1  UNL1        0.2505
     23 O           5.1543    6.8382   -2.1115 O.2     1  UNL1       -0.2696
     24 C           5.4850    5.7456   -0.1263 C.ar    1  UNL1        0.0401
     25 C           5.2867    6.9663    0.5554 C.ar    1  UNL1       -0.0467
     26 C           5.6991    7.1436    1.8835 C.ar    1  UNL1       -0.0229
     27 C           6.3167    6.0813    2.5242 C.ar    1  UNL1        0.1584
     28 F           6.7286    6.2392    3.7952 F       1  UNL1       -0.2025
     29 C           6.5260    4.8929    1.8608 C.ar    1  UNL1        0.1591
     30 F           7.1527    3.8887    2.4915 F       1  UNL1       -0.2025
     31 C           6.1401    4.7121    0.5350 C.ar    1  UNL1       -0.0115
     32 H           6.5096   -2.0108    0.0786 H       1  UNL1        0.0262
     33 H           6.5460   -0.2556   -0.2120 H       1  UNL1        0.0262
     34 H           7.0488   -1.3564   -1.4867 H       1  UNL1        0.0262
     35 H           4.1915   -1.2113   -0.3747 H       1  UNL1        0.0695
     36 H           4.7306   -2.2333   -1.7047 H       1  UNL1        0.0695
     37 H           4.2556    3.2573   -0.7812 H       1  UNL1        0.0793
     38 H           4.3449    5.8695   -3.8964 H       1  UNL1        0.0477
     39 H           3.6933    4.2744   -4.0268 H       1  UNL1        0.0477
     40 H           6.0264    5.5302   -6.5210 H       1  UNL1        0.0239
     41 H           4.3544    5.2962   -6.0414 H       1  UNL1        0.0239
     42 H           5.2190    3.9691   -6.7093 H       1  UNL1        0.0239
     43 H           6.9977    6.2541   -4.4025 H       1  UNL1        0.0239
     44 H           7.9488    4.8319   -4.8164 H       1  UNL1        0.0239
     45 H           7.3637    5.0211   -3.1773 H       1  UNL1        0.0239
     46 H           4.4015    0.3182   -4.8445 H       1  UNL1        0.1659
     47 H           5.1590    1.1746   -7.8109 H       1  UNL1        0.0638
     48 H           6.9206    2.6777   -8.7963 H       1  UNL1        0.0618
     49 H           8.8466    3.4418   -7.4065 H       1  UNL1        0.0618
     50 H           8.8332    1.3571   -5.7292 H       1  UNL1        0.0624
     51 H           4.8445    7.8211    0.0245 H       1  UNL1        0.0626
     52 H           5.5746    8.1027    2.3698 H       1  UNL1        0.0647
     53 H           6.4022    3.7831    0.0446 H       1  UNL1        0.0655
@<TRIPOS>BOND
     1     1     2    1
     2     2     3    1
     3     3     4    1
     4     4     5    2
     5     4     6    1
     6     6    14    1
     7     6     7    2
     8     7     8    1
     9     8     9    1
    10     8    22   am
    11     9    10    1
    12    10    11    1
    13    10    12    1
    14    10    13    1
    15    13    21   ar
    16    13    14   ar
    17    14    15   ar
    18    15    16   ar
    19    16    21   ar
    20    16    17   ar
    21    17    18   ar
    22    18    19   ar
    23    19    20   ar
    24    20    21   ar
    25    22    23    2
    26    22    24    1
    27    24    31   ar
    28    24    25   ar
    29    25    26   ar
    30    26    27   ar
    31    27    28    1
    32    27    29   ar
    33    29    30    1
    34    29    31   ar
    35     1    32    1
    36     1    33    1
    37     1    34    1
    38     2    35    1
    39     2    36    1
    40     7    37    1
    41     9    38    1
    42     9    39    1
    43    11    40    1
    44    11    41    1
    45    11    42    1
    46    12    43    1
    47    12    44    1
    48    12    45    1
    49    15    46    1
    50    17    47    1
    51    18    48    1
    52    19    49    1
    53    20    50    1
    54    25    51    1
    55    26    52    1
    56    31    53    1
