FXR_4
 OpenBabel06201723583D
Structure written by MMmdl.
 57 60  0  0  0  0  0  0  0  0999 V2000
    3.0659   -4.8609    2.0583 C   0  0  0  0  0  0  0  0  0  0  0  0
    3.8087   -4.3101    0.9128 C   0  0  0  0  0  0  0  0  0  0  0  0
    5.0122   -4.8985    0.7109 O   0  0  0  0  0  0  0  0  0  0  0  0
    5.7198   -4.2230   -0.2395 N   0  0  0  0  0  0  0  0  0  0  0  0
    4.9535   -3.1905   -0.6388 C   0  0  0  0  0  0  0  0  0  0  0  0
    5.5884   -2.2148   -1.5591 C   0  0  0  0  0  0  0  0  0  0  0  0
    6.9101   -1.7794   -1.2881 C   0  0  0  0  0  0  0  0  0  0  0  0
    7.5605   -0.8338   -2.1007 C   0  0  0  0  0  0  0  0  0  0  0  0
    6.9001   -0.3016   -3.1989 C   0  0  0  0  0  0  0  0  0  0  0  0
    7.6402    0.9136   -4.1633 Cl  0  0  0  0  0  0  0  0  0  0  0  0
    5.6405   -0.7691   -3.5351 C   0  0  0  0  0  0  0  0  0  0  0  0
    5.0104   -1.7394   -2.7410 C   0  0  0  0  0  0  0  0  0  0  0  0
    3.5704   -2.3716   -3.4079 Cl  0  0  0  0  0  0  0  0  0  0  0  0
    3.6354   -3.2663    0.0209 C   0  0  0  0  0  0  0  0  0  0  0  0
    2.4807   -2.3192   -0.0437 C   0  0  0  0  0  0  0  0  0  0  0  0
    2.7263   -1.1583   -0.3537 O   0  0  0  0  0  0  0  0  0  0  0  0
    1.1220   -2.7515    0.2640 N   0  0  0  0  0  0  0  0  0  0  0  0
    0.0760   -1.5758    0.3163 C   0  0  0  0  0  0  0  0  0  0  0  0
   -1.4638   -1.9376    0.3823 C   0  0  0  0  0  0  0  0  0  0  0  0
   -2.2137   -1.7794    1.7039 C   0  0  0  0  0  0  0  0  0  0  0  0
   -1.8157   -0.5733    2.5306 C   0  0  0  0  0  0  0  0  0  0  0  0
   -0.3074   -0.3744    2.5826 C   0  0  0  0  0  0  0  0  0  0  0  0
    0.3223   -0.3329    1.1973 C   0  0  0  0  0  0  0  0  0  0  0  0
    0.5916   -3.8721   -0.5822 C   0  0  0  0  0  0  0  0  0  0  0  0
    0.3132   -3.3667   -2.0075 C   0  0  0  0  0  0  0  0  0  0  0  0
    0.8992   -4.2165   -3.1029 C   0  0  0  0  0  0  0  0  0  0  0  0
    0.4255   -5.6350   -2.9775 C   0  0  0  0  0  0  0  0  0  0  0  0
    1.0598   -6.2234   -1.7235 C   0  0  0  0  0  0  0  0  0  0  0  0
    0.7736   -5.4122   -0.4514 C   0  0  0  0  0  0  0  0  0  0  0  0
    2.2171   -4.2338    2.3342 H   0  0  0  0  0  0  0  0  0  0  0  0
    3.7197   -4.9479    2.9335 H   0  0  0  0  0  0  0  0  0  0  0  0
    2.7158   -5.8721    1.8399 H   0  0  0  0  0  0  0  0  0  0  0  0
    7.4614   -2.1842   -0.4388 H   0  0  0  0  0  0  0  0  0  0  0  0
    8.5751   -0.5174   -1.8686 H   0  0  0  0  0  0  0  0  0  0  0  0
    5.1456   -0.3996   -4.4301 H   0  0  0  0  0  0  0  0  0  0  0  0
    0.1937   -1.1479   -0.6876 H   0  0  0  0  0  0  0  0  0  0  0  0
   -1.7510   -2.9208    0.0195 H   0  0  0  0  0  0  0  0  0  0  0  0
   -1.9536   -1.2792   -0.3457 H   0  0  0  0  0  0  0  0  0  0  0  0
   -2.1080   -2.6866    2.3050 H   0  0  0  0  0  0  0  0  0  0  0  0
   -3.2844   -1.6992    1.4745 H   0  0  0  0  0  0  0  0  0  0  0  0
   -2.2086   -0.6870    3.5454 H   0  0  0  0  0  0  0  0  0  0  0  0
   -2.2962    0.3225    2.1151 H   0  0  0  0  0  0  0  0  0  0  0  0
    0.1582   -1.1640    3.1768 H   0  0  0  0  0  0  0  0  0  0  0  0
   -0.1145    0.5804    3.0867 H   0  0  0  0  0  0  0  0  0  0  0  0
   -0.1653    0.5069    0.6730 H   0  0  0  0  0  0  0  0  0  0  0  0
    1.3748   -0.0542    1.2697 H   0  0  0  0  0  0  0  0  0  0  0  0
   -0.3598   -3.9272   -0.0802 H   0  0  0  0  0  0  0  0  0  0  0  0
    0.7027   -2.3573   -2.1641 H   0  0  0  0  0  0  0  0  0  0  0  0
   -0.7731   -3.2967   -2.1387 H   0  0  0  0  0  0  0  0  0  0  0  0
    1.9834   -4.2354   -3.0125 H   0  0  0  0  0  0  0  0  0  0  0  0
    0.6450   -3.7793   -4.0737 H   0  0  0  0  0  0  0  0  0  0  0  0
    0.7404   -6.1990   -3.8608 H   0  0  0  0  0  0  0  0  0  0  0  0
   -0.6688   -5.6703   -2.9307 H   0  0  0  0  0  0  0  0  0  0  0  0
    2.1443   -6.2995   -1.8607 H   0  0  0  0  0  0  0  0  0  0  0  0
    0.6871   -7.2479   -1.5997 H   0  0  0  0  0  0  0  0  0  0  0  0
   -0.2158   -5.8039   -0.1458 H   0  0  0  0  0  0  0  0  0  0  0  0
    1.4154   -5.7294    0.3586 H   0  0  0  0  0  0  0  0  0  0  0  0
  1  2  1  0  0  0  0
  1 30  1  0  0  0  0
  1 31  1  0  0  0  0
  1 32  1  0  0  0  0
  2 14  2  0  0  0  0
  2  3  1  0  0  0  0
  3  4  1  0  0  0  0
  4  5  2  0  0  0  0
  5  6  1  0  0  0  0
  5 14  1  0  0  0  0
  6 12  2  0  0  0  0
  6  7  1  0  0  0  0
  7  8  2  0  0  0  0
  7 33  1  0  0  0  0
  8  9  1  0  0  0  0
  8 34  1  0  0  0  0
  9 10  1  0  0  0  0
  9 11  2  0  0  0  0
 11 12  1  0  0  0  0
 11 35  1  0  0  0  0
 12 13  1  0  0  0  0
 14 15  1  0  0  0  0
 15 16  2  0  0  0  0
 15 17  1  0  0  0  0
 17 18  1  0  0  0  0
 17 24  1  0  0  0  0
 18 23  1  0  0  0  0
 18 19  1  0  0  0  0
 18 36  1  0  0  0  0
 19 20  1  0  0  0  0
 19 37  1  0  0  0  0
 19 38  1  0  0  0  0
 20 21  1  0  0  0  0
 20 39  1  0  0  0  0
 20 40  1  0  0  0  0
 21 22  1  0  0  0  0
 21 41  1  0  0  0  0
 21 42  1  0  0  0  0
 22 23  1  0  0  0  0
 22 43  1  0  0  0  0
 22 44  1  0  0  0  0
 23 45  1  0  0  0  0
 23 46  1  0  0  0  0
 24 29  1  0  0  0  0
 24 25  1  0  0  0  0
 24 47  1  0  0  0  0
 25 26  1  0  0  0  0
 25 48  1  0  0  0  0
 25 49  1  0  0  0  0
 26 27  1  0  0  0  0
 26 50  1  0  0  0  0
 26 51  1  0  0  0  0
 27 28  1  0  0  0  0
 27 52  1  0  0  0  0
 27 53  1  0  0  0  0
 28 29  1  0  0  0  0
 28 54  1  0  0  0  0
 28 55  1  0  0  0  0
 29 56  1  0  0  0  0
 29 57  1  0  0  0  0
M  END
$$$$
