@<TRIPOS>MOLECULE
FXR_3
 56 58 0 0 0
SMALL
GASTEIGER
****
Structure written by MMmdl.
@<TRIPOS>ATOM
      1 F          12.4191    5.9452    2.6476 F       1  UNL1       -0.2055
      2 C          11.7818    4.9422    2.0317 C.ar    1  UNL1        0.1234
      3 C          12.5081    3.8224    1.6204 C.ar    1  UNL1       -0.0259
      4 C          11.8452    2.7597    0.9986 C.ar    1  UNL1       -0.0519
      5 C          10.4567    2.7873    0.7984 C.ar    1  UNL1       -0.0247
      6 C           9.7126    1.6411    0.2167 C.2     1  UNL1       -0.0497
      7 C          10.1620    0.3722    0.1539 C.2     1  UNL1        0.0013
      8 C           9.2655   -0.7579   -0.2812 C.2     1  UNL1        0.2471
      9 O           8.0701   -0.6030   -0.0171 O.2     1  UNL1       -0.2702
     10 N           9.7972   -1.9358   -0.8893 N.am    1  UNL1       -0.2194
     11 C           8.8141   -3.1066   -1.0488 C.3     1  UNL1        0.0354
     12 C           7.4365   -2.6857   -1.6305 C.3     1  UNL1       -0.0338
     13 C           7.6532   -2.0809   -3.0129 C.3     1  UNL1       -0.0514
     14 C           8.1160   -3.1632   -3.9813 C.3     1  UNL1       -0.0529
     15 C           9.2779   -3.9993   -3.4427 C.3     1  UNL1       -0.0514
     16 C           9.1615   -4.3356   -1.9505 C.3     1  UNL1       -0.0338
     17 C          11.1488   -1.9741   -1.2363 C.2     1  UNL1        0.3092
     18 O          11.8389   -0.9701   -1.4102 O.2     1  UNL1       -0.2522
     19 N          11.7108   -3.2075   -1.4483 N.am    1  UNL1       -0.2961
     20 C          13.1126   -3.3664   -1.8599 C.3     1  UNL1        0.0246
     21 C          13.9796   -3.7141   -0.6442 C.3     1  UNL1       -0.0345
     22 C          13.7129   -5.1314   -0.1298 C.3     1  UNL1       -0.0514
     23 C          13.8479   -6.1811   -1.2303 C.3     1  UNL1       -0.0529
     24 C          13.0098   -5.8470   -2.4603 C.3     1  UNL1       -0.0514
     25 C          13.2779   -4.4290   -2.9568 C.3     1  UNL1       -0.0345
     26 C           9.7602    3.9490    1.1869 C.ar    1  UNL1       -0.0519
     27 C          10.4160    5.0189    1.8091 C.ar    1  UNL1       -0.0259
     28 H          13.5753    3.7847    1.7977 H       1  UNL1        0.0646
     29 H          12.4389    1.9097    0.6769 H       1  UNL1        0.0624
     30 H           8.7025    1.8732   -0.1293 H       1  UNL1        0.0625
     31 H          11.1365    0.0939    0.5244 H       1  UNL1        0.0670
     32 H           8.6592   -3.4821   -0.0280 H       1  UNL1        0.0506
     33 H           6.8628   -2.0238   -0.9853 H       1  UNL1        0.0283
     34 H           6.7810   -3.5656   -1.7172 H       1  UNL1        0.0283
     35 H           8.4027   -1.2816   -2.9732 H       1  UNL1        0.0266
     36 H           6.7272   -1.6229   -3.3710 H       1  UNL1        0.0266
     37 H           8.4033   -2.7076   -4.9353 H       1  UNL1        0.0265
     38 H           7.2682   -3.8262   -4.1913 H       1  UNL1        0.0265
     39 H          10.2158   -3.4703   -3.6318 H       1  UNL1        0.0266
     40 H           9.3355   -4.9343   -4.0167 H       1  UNL1        0.0266
     41 H           8.3420   -5.0663   -1.8514 H       1  UNL1        0.0283
     42 H          10.0165   -4.9171   -1.6078 H       1  UNL1        0.0283
     43 H          11.3642   -3.9347   -0.8467 H       1  UNL1        0.1505
     44 H          13.4618   -2.4138   -2.2755 H       1  UNL1        0.0499
     45 H          13.8061   -2.9933    0.1634 H       1  UNL1        0.0283
     46 H          15.0372   -3.6325   -0.9247 H       1  UNL1        0.0283
     47 H          12.7068   -5.1874    0.3028 H       1  UNL1        0.0266
     48 H          14.4124   -5.3609    0.6817 H       1  UNL1        0.0266
     49 H          13.5497   -7.1614   -0.8418 H       1  UNL1        0.0265
     50 H          14.9016   -6.2619   -1.5231 H       1  UNL1        0.0265
     51 H          11.9464   -5.9645   -2.2266 H       1  UNL1        0.0266
     52 H          13.2331   -6.5633   -3.2598 H       1  UNL1        0.0266
     53 H          14.3106   -4.3851   -3.3311 H       1  UNL1        0.0283
     54 H          12.6293   -4.2065   -3.8120 H       1  UNL1        0.0283
     55 H           8.6859    4.0294    1.0321 H       1  UNL1        0.0624
     56 H           9.8640    5.9007    2.1209 H       1  UNL1        0.0646
@<TRIPOS>BOND
     1     1     2    1
     2     2    27   ar
     3     2     3   ar
     4     3     4   ar
     5     4     5   ar
     6     5     6    1
     7     5    26   ar
     8     6     7    2
     9     7     8    1
    10     8     9    2
    11     8    10   am
    12    10    11    1
    13    10    17   am
    14    11    16    1
    15    11    12    1
    16    12    13    1
    17    13    14    1
    18    14    15    1
    19    15    16    1
    20    17    18    2
    21    17    19   am
    22    19    20    1
    23    20    25    1
    24    20    21    1
    25    21    22    1
    26    22    23    1
    27    23    24    1
    28    24    25    1
    29    26    27   ar
    30     3    28    1
    31     4    29    1
    32     6    30    1
    33     7    31    1
    34    11    32    1
    35    12    33    1
    36    12    34    1
    37    13    35    1
    38    13    36    1
    39    14    37    1
    40    14    38    1
    41    15    39    1
    42    15    40    1
    43    16    41    1
    44    16    42    1
    45    19    43    1
    46    20    44    1
    47    21    45    1
    48    21    46    1
    49    22    47    1
    50    22    48    1
    51    23    49    1
    52    23    50    1
    53    24    51    1
    54    24    52    1
    55    25    53    1
    56    25    54    1
    57    26    55    1
    58    27    56    1
