FXR_6
 OpenBabel06211700013D
Structure written by MMmdl.
 72 76  0  0  1  0  0  0  0  0999 V2000
    3.0732    0.6287   -0.7570 O   0  0  0  0  0  0  0  0  0  0  0  0
    2.9601    0.7558    0.4422 C   0  0  0  0  0  0  0  0  0  0  0  0
    2.5877    1.9714    1.0453 N   0  0  0  0  0  0  0  0  0  0  0  0
    2.2635    3.1934    0.3023 C   0  0  0  0  0  0  0  0  0  0  0  0
    0.7585    3.3194    0.0054 C   0  0  0  0  0  0  0  0  0  0  0  0
   -0.0741    3.5292    1.2713 C   0  0  0  0  0  0  0  0  0  0  0  0
    0.4045    4.7397    2.0687 C   0  0  0  0  0  0  0  0  0  0  0  0
    1.9054    4.6982    2.3434 C   0  0  0  0  0  0  0  0  0  0  0  0
    2.7278    4.4363    1.0781 C   0  0  0  0  0  0  0  0  0  0  0  0
    3.1383   -0.3991    1.4586 C   0  0  1  0  0  0  0  0  0  0  0  0
    2.1019   -1.6013    1.2982 C   0  0  0  0  0  0  0  0  0  0  0  0
    0.6560   -1.1566    1.6231 C   0  0  0  0  0  0  0  0  0  0  0  0
   -0.0793   -0.5420    0.4368 C   0  0  0  0  0  0  0  0  0  0  0  0
   -0.1235   -1.4546   -0.7799 C   0  0  0  0  0  0  0  0  0  0  0  0
    1.2233   -2.0807   -1.1243 C   0  0  0  0  0  0  0  0  0  0  0  0
    2.0289   -2.5501    0.0848 C   0  0  0  0  0  0  0  0  0  0  0  0
    4.5662   -0.7349    1.7332 N   0  0  0  0  0  0  0  0  0  0  0  0
    5.4409   -1.2881    0.8048 C   0  0  0  0  0  0  0  0  0  0  0  0
    5.3285   -1.6168   -0.5527 C   0  0  0  0  0  0  0  0  0  0  0  0
    6.4192   -2.2397   -1.1695 C   0  0  0  0  0  0  0  0  0  0  0  0
    7.5878   -2.5173   -0.4564 C   0  0  0  0  0  0  0  0  0  0  0  0
    7.7172   -2.1122    0.8750 C   0  0  0  0  0  0  0  0  0  0  0  0
    6.6345   -1.4724    1.4944 C   0  0  0  0  0  0  0  0  0  0  0  0
    6.5588   -0.9773    2.7552 N   0  0  0  0  0  0  0  0  0  0  0  0
    5.3062   -0.5904    2.9399 C   0  0  0  0  0  0  0  0  0  0  0  0
    4.8437   -0.1948    4.2974 C   0  0  0  0  0  0  0  0  0  0  0  0
    5.6969    0.3760    5.2570 C   0  0  0  0  0  0  0  0  0  0  0  0
    5.2408    0.6498    6.5665 C   0  0  0  0  0  0  0  0  0  0  0  0
    3.8907    0.4879    6.8763 C   0  0  0  0  0  0  0  0  0  0  0  0
    3.2788    0.7932    8.0591 O   0  0  0  0  0  0  0  0  0  0  0  0
    4.0612    0.6349    9.2373 C   0  0  0  0  0  0  0  0  0  0  0  0
    3.0507   -0.0874    5.9332 C   0  0  0  0  0  0  0  0  0  0  0  0
    3.6028   -0.6111    4.7707 C   0  0  0  0  0  0  0  0  0  0  0  0
    3.1186   -1.7075    4.1224 O   0  0  0  0  0  0  0  0  0  0  0  0
    2.0507   -2.4226    4.7026 C   0  0  0  0  0  0  0  0  0  0  0  0
    2.4538    2.0013    2.0479 H   0  0  0  0  0  0  0  0  0  0  0  0
    2.8015    3.1514   -0.6512 H   0  0  0  0  0  0  0  0  0  0  0  0
    0.3912    2.4466   -0.5410 H   0  0  0  0  0  0  0  0  0  0  0  0
    0.6001    4.1826   -0.6566 H   0  0  0  0  0  0  0  0  0  0  0  0
   -0.0269    2.6319    1.9006 H   0  0  0  0  0  0  0  0  0  0  0  0
   -1.1273    3.6687    1.0008 H   0  0  0  0  0  0  0  0  0  0  0  0
   -0.1414    4.7942    3.0184 H   0  0  0  0  0  0  0  0  0  0  0  0
    0.1628    5.6559    1.5157 H   0  0  0  0  0  0  0  0  0  0  0  0
    2.1154    3.9227    3.0890 H   0  0  0  0  0  0  0  0  0  0  0  0
    2.2177    5.6495    2.7897 H   0  0  0  0  0  0  0  0  0  0  0  0
    2.6447    5.3135    0.4225 H   0  0  0  0  0  0  0  0  0  0  0  0
    3.7855    4.3394    1.3479 H   0  0  0  0  0  0  0  0  0  0  0  0
    2.8410    0.0522    2.4090 H   0  0  0  0  0  0  0  0  0  0  0  0
    2.3903   -2.2942    2.0909 H   0  0  0  0  0  0  0  0  0  0  0  0
    0.6433   -0.4564    2.4649 H   0  0  0  0  0  0  0  0  0  0  0  0
    0.0872   -2.0368    1.9544 H   0  0  0  0  0  0  0  0  0  0  0  0
    0.3926    0.3978    0.1568 H   0  0  0  0  0  0  0  0  0  0  0  0
   -1.1040   -0.2889    0.7357 H   0  0  0  0  0  0  0  0  0  0  0  0
   -0.4888   -0.8853   -1.6460 H   0  0  0  0  0  0  0  0  0  0  0  0
   -0.8649   -2.2446   -0.6042 H   0  0  0  0  0  0  0  0  0  0  0  0
    1.8185   -1.3850   -1.7200 H   0  0  0  0  0  0  0  0  0  0  0  0
    1.0311   -2.9458   -1.7749 H   0  0  0  0  0  0  0  0  0  0  0  0
    1.5083   -3.4546    0.4432 H   0  0  0  0  0  0  0  0  0  0  0  0
    3.0102   -2.9158   -0.2170 H   0  0  0  0  0  0  0  0  0  0  0  0
    4.4276   -1.4102   -1.1199 H   0  0  0  0  0  0  0  0  0  0  0  0
    6.3462   -2.5392   -2.2103 H   0  0  0  0  0  0  0  0  0  0  0  0
    8.4163   -3.0395   -0.9362 H   0  0  0  0  0  0  0  0  0  0  0  0
    8.6263   -2.2947    1.4395 H   0  0  0  0  0  0  0  0  0  0  0  0
    6.7519    0.5253    5.0224 H   0  0  0  0  0  0  0  0  0  0  0  0
    5.9542    0.9733    7.3185 H   0  0  0  0  0  0  0  0  0  0  0  0
    3.3763    0.6570   10.0933 H   0  0  0  0  0  0  0  0  0  0  0  0
    4.7598    1.4669    9.3467 H   0  0  0  0  0  0  0  0  0  0  0  0
    4.5833   -0.3277    9.2545 H   0  0  0  0  0  0  0  0  0  0  0  0
    2.0069   -0.2422    6.1840 H   0  0  0  0  0  0  0  0  0  0  0  0
    2.1526   -2.5781    5.7801 H   0  0  0  0  0  0  0  0  0  0  0  0
    2.0323   -3.4048    4.2217 H   0  0  0  0  0  0  0  0  0  0  0  0
    1.1346   -1.8895    4.4531 H   0  0  0  0  0  0  0  0  0  0  0  0
  1  2  2  0  0  0  0
  2  3  1  0  0  0  0
  2 10  1  0  0  0  0
  3  4  1  0  0  0  0
  3 36  1  0  0  0  0
  4  9  1  0  0  0  0
  4  5  1  0  0  0  0
  4 37  1  0  0  0  0
  5  6  1  0  0  0  0
  5 38  1  0  0  0  0
  5 39  1  0  0  0  0
  6  7  1  0  0  0  0
  6 40  1  0  0  0  0
  6 41  1  0  0  0  0
  7  8  1  0  0  0  0
  7 42  1  0  0  0  0
  7 43  1  0  0  0  0
  8  9  1  0  0  0  0
  8 44  1  0  0  0  0
  8 45  1  0  0  0  0
  9 46  1  0  0  0  0
  9 47  1  0  0  0  0
 10 11  1  0  0  0  0
 10 17  1  0  0  0  0
 10 48  1  1  0  0  0
 11 16  1  0  0  0  0
 11 12  1  0  0  0  0
 11 49  1  0  0  0  0
 12 13  1  0  0  0  0
 12 50  1  0  0  0  0
 12 51  1  0  0  0  0
 13 14  1  0  0  0  0
 13 52  1  0  0  0  0
 13 53  1  0  0  0  0
 14 15  1  0  0  0  0
 14 54  1  0  0  0  0
 14 55  1  0  0  0  0
 15 16  1  0  0  0  0
 15 56  1  0  0  0  0
 15 57  1  0  0  0  0
 16 58  1  0  0  0  0
 16 59  1  0  0  0  0
 17 25  1  0  0  0  0
 17 18  1  0  0  0  0
 18 23  2  0  0  0  0
 18 19  1  0  0  0  0
 19 20  2  0  0  0  0
 19 60  1  0  0  0  0
 20 21  1  0  0  0  0
 20 61  1  0  0  0  0
 21 22  2  0  0  0  0
 21 62  1  0  0  0  0
 22 23  1  0  0  0  0
 22 63  1  0  0  0  0
 23 24  1  0  0  0  0
 24 25  2  0  0  0  0
 25 26  1  0  0  0  0
 26 33  2  0  0  0  0
 26 27  1  0  0  0  0
 27 28  2  0  0  0  0
 27 64  1  0  0  0  0
 28 29  1  0  0  0  0
 28 65  1  0  0  0  0
 29 30  1  0  0  0  0
 29 32  2  0  0  0  0
 30 31  1  0  0  0  0
 31 66  1  0  0  0  0
 31 67  1  0  0  0  0
 31 68  1  0  0  0  0
 32 33  1  0  0  0  0
 32 69  1  0  0  0  0
 33 34  1  0  0  0  0
 34 35  1  0  0  0  0
 35 70  1  0  0  0  0
 35 71  1  0  0  0  0
 35 72  1  0  0  0  0
M  END
$$$$
