FXR_10
 OpenBabel06211700093D
Structure written by MMmdl.
 55 59  0  0  0  0  0  0  0  0999 V2000
   -0.6779    8.2735   -3.5186 O   0  0  0  0  0  0  0  0  0  0  0  0
   -0.3324    7.3442   -2.6043 C   0  0  0  0  0  0  0  0  0  0  0  0
   -0.8855    7.2336   -1.5256 O   0  0  0  0  0  0  0  0  0  0  0  0
    0.7774    6.4527   -3.0307 C   0  0  0  0  0  0  0  0  0  0  0  0
    0.8170    5.1595   -2.4981 C   0  0  0  0  0  0  0  0  0  0  0  0
    1.9291    4.3446   -2.7141 C   0  0  0  0  0  0  0  0  0  0  0  0
    3.0217    4.8189   -3.4540 C   0  0  0  0  0  0  0  0  0  0  0  0
    4.3368    4.0798   -3.4057 C   0  0  0  0  0  0  0  0  0  0  0  0
    4.8508    3.6288   -4.6732 N   0  0  0  0  0  0  0  0  0  0  0  0
    5.7929    4.3612   -5.3986 C   0  0  0  0  0  0  0  0  0  0  0  0
    6.1265    5.5212   -5.2033 O   0  0  0  0  0  0  0  0  0  0  0  0
    6.3762    3.4343   -6.4924 C   0  0  0  0  0  0  0  0  0  0  0  0
    7.9107    3.4128   -6.3550 C   0  0  0  0  0  0  0  0  0  0  0  0
    8.5947    4.5777   -7.0690 C   0  0  0  0  0  0  0  0  0  0  0  0
    8.0680    4.7574   -8.4406 N   0  0  0  0  0  0  0  0  0  0  0  0
    6.6228    5.0686   -8.4222 C   0  0  0  0  0  0  0  0  0  0  0  0
    5.8430    3.8892   -7.8629 C   0  0  0  0  0  0  0  0  0  0  0  0
    8.5658    3.6619   -9.6478 S   0  0  0  0  0  0  0  0  0  0  0  0
    8.4261    2.3139   -9.1362 O   0  0  0  0  0  0  0  0  0  0  0  0
    7.9526    4.0460  -10.8996 O   0  0  0  0  0  0  0  0  0  0  0  0
   10.3163    3.8625   -9.9002 C   0  0  0  0  0  0  0  0  0  0  0  0
   11.3823    2.9981   -9.7331 C   0  0  0  0  0  0  0  0  0  0  0  0
   12.6210    3.5874  -10.1151 C   0  0  0  0  0  0  0  0  0  0  0  0
   12.4595    4.8848  -10.5487 C   0  0  0  0  0  0  0  0  0  0  0  0
   10.8277    5.3926  -10.4671 S   0  0  0  0  0  0  0  0  0  0  0  0
    5.7420    2.1075   -6.1209 C   0  0  0  0  0  0  0  0  0  0  0  0
    5.9782    0.8407   -6.6408 C   0  0  0  0  0  0  0  0  0  0  0  0
    5.2448   -0.2275   -6.1215 C   0  0  0  0  0  0  0  0  0  0  0  0
    5.5717   -1.9792   -6.7550 Br  0  0  0  0  0  0  0  0  0  0  0  0
    4.2757   -0.0262   -5.1259 C   0  0  0  0  0  0  0  0  0  0  0  0
    4.0542    1.2504   -4.6020 C   0  0  0  0  0  0  0  0  0  0  0  0
    4.8147    2.2964   -5.0966 C   0  0  0  0  0  0  0  0  0  0  0  0
    2.9350    6.0800   -4.0630 C   0  0  0  0  0  0  0  0  0  0  0  0
    1.8270    6.9021   -3.8399 C   0  0  0  0  0  0  0  0  0  0  0  0
   -0.2795    8.1525   -4.3985 H   0  0  0  0  0  0  0  0  0  0  0  0
    0.0076    4.8062   -1.8609 H   0  0  0  0  0  0  0  0  0  0  0  0
    1.9652    3.3681   -2.2349 H   0  0  0  0  0  0  0  0  0  0  0  0
    4.2794    3.2318   -2.7131 H   0  0  0  0  0  0  0  0  0  0  0  0
    5.0736    4.7611   -2.9579 H   0  0  0  0  0  0  0  0  0  0  0  0
    8.3198    2.4722   -6.7372 H   0  0  0  0  0  0  0  0  0  0  0  0
    8.2021    3.4335   -5.2958 H   0  0  0  0  0  0  0  0  0  0  0  0
    9.6809    4.4344   -7.0919 H   0  0  0  0  0  0  0  0  0  0  0  0
    8.4352    5.5084   -6.5130 H   0  0  0  0  0  0  0  0  0  0  0  0
    6.2718    5.3248   -9.4270 H   0  0  0  0  0  0  0  0  0  0  0  0
    6.4581    5.9689   -7.8173 H   0  0  0  0  0  0  0  0  0  0  0  0
    4.7828    4.1694   -7.7943 H   0  0  0  0  0  0  0  0  0  0  0  0
    5.8855    3.0608   -8.5809 H   0  0  0  0  0  0  0  0  0  0  0  0
   11.2628    1.9813   -9.3747 H   0  0  0  0  0  0  0  0  0  0  0  0
   13.5791    3.0830  -10.0863 H   0  0  0  0  0  0  0  0  0  0  0  0
   13.2195    5.5636  -10.9106 H   0  0  0  0  0  0  0  0  0  0  0  0
    6.7198    0.6863   -7.4200 H   0  0  0  0  0  0  0  0  0  0  0  0
    3.6967   -0.8655   -4.7473 H   0  0  0  0  0  0  0  0  0  0  0  0
    3.3029    1.3988   -3.8354 H   0  0  0  0  0  0  0  0  0  0  0  0
    3.7728    6.4678   -4.6410 H   0  0  0  0  0  0  0  0  0  0  0  0
    1.8504    7.9147   -4.2336 H   0  0  0  0  0  0  0  0  0  0  0  0
  1  2  1  0  0  0  0
  1 35  1  0  0  0  0
  2  3  2  0  0  0  0
  2  4  1  0  0  0  0
  4 34  2  0  0  0  0
  4  5  1  0  0  0  0
  5  6  2  0  0  0  0
  5 36  1  0  0  0  0
  6  7  1  0  0  0  0
  6 37  1  0  0  0  0
  7  8  1  0  0  0  0
  7 33  2  0  0  0  0
  8  9  1  0  0  0  0
  8 38  1  0  0  0  0
  8 39  1  0  0  0  0
  9 32  1  0  0  0  0
  9 10  1  0  0  0  0
 10 11  2  0  0  0  0
 10 12  1  0  0  0  0
 12 17  1  0  0  0  0
 12 13  1  0  0  0  0
 12 26  1  0  0  0  0
 13 14  1  0  0  0  0
 13 40  1  0  0  0  0
 13 41  1  0  0  0  0
 14 15  1  0  0  0  0
 14 42  1  0  0  0  0
 14 43  1  0  0  0  0
 15 16  1  0  0  0  0
 15 18  1  0  0  0  0
 16 17  1  0  0  0  0
 16 44  1  0  0  0  0
 16 45  1  0  0  0  0
 17 46  1  0  0  0  0
 17 47  1  0  0  0  0
 18 19  2  0  0  0  0
 18 20  2  0  0  0  0
 18 21  1  0  0  0  0
 21 25  1  0  0  0  0
 21 22  2  0  0  0  0
 22 23  1  0  0  0  0
 22 48  1  0  0  0  0
 23 24  2  0  0  0  0
 23 49  1  0  0  0  0
 24 25  1  0  0  0  0
 24 50  1  0  0  0  0
 26 32  2  0  0  0  0
 26 27  1  0  0  0  0
 27 28  2  0  0  0  0
 27 51  1  0  0  0  0
 28 29  1  0  0  0  0
 28 30  1  0  0  0  0
 30 31  2  0  0  0  0
 30 52  1  0  0  0  0
 31 32  1  0  0  0  0
 31 53  1  0  0  0  0
 33 34  1  0  0  0  0
 33 54  1  0  0  0  0
 34 55  1  0  0  0  0
M  END
$$$$
