FXR_8
 OpenBabel06211700053D
Structure written by MMmdl.
 68 72  0  0  1  0  0  0  0  0999 V2000
    1.6838    0.3470    1.2355 C   0  0  0  0  0  0  0  0  0  0  0  0
    1.5290    1.2140    0.1460 N   0  0  0  0  0  0  0  0  0  0  0  0
    1.9338    2.6354    0.0655 C   0  0  1  0  0  0  0  0  0  0  0  0
    3.2019    2.8913   -0.8021 C   0  0  0  0  0  0  0  0  0  0  0  0
    3.7967    3.9704   -0.7485 O   0  0  0  0  0  0  0  0  0  0  0  0
    3.6602    1.9074   -1.6394 N   0  0  0  0  0  0  0  0  0  0  0  0
    4.7631    2.1189   -2.5911 C   0  0  0  0  0  0  0  0  0  0  0  0
    5.1117    0.7942   -3.2806 C   0  0  0  0  0  0  0  0  0  0  0  0
    3.9189    0.2680   -4.0812 C   0  0  0  0  0  0  0  0  0  0  0  0
    3.4032    1.2914   -5.0932 C   0  0  0  0  0  0  0  0  0  0  0  0
    3.2050    2.6892   -4.5062 C   0  0  0  0  0  0  0  0  0  0  0  0
    4.4082    3.1458   -3.6832 C   0  0  0  0  0  0  0  0  0  0  0  0
    0.7429    3.6109   -0.2722 C   0  0  0  0  0  0  0  0  0  0  0  0
   -0.5946    3.3145    0.4691 C   0  0  0  0  0  0  0  0  0  0  0  0
   -0.8679    4.0924    1.7600 C   0  0  0  0  0  0  0  0  0  0  0  0
   -0.5612    5.5732    1.6246 C   0  0  0  0  0  0  0  0  0  0  0  0
    0.8783    5.7544    1.1800 C   0  0  0  0  0  0  0  0  0  0  0  0
    1.0817    5.1205   -0.1893 C   0  0  0  0  0  0  0  0  0  0  0  0
    0.9260    0.4813   -0.8785 C   0  0  0  0  0  0  0  0  0  0  0  0
    0.8145   -0.8093   -0.3708 C   0  0  0  0  0  0  0  0  0  0  0  0
    1.2871   -0.8710    0.9031 N   0  0  0  0  0  0  0  0  0  0  0  0
    0.2820   -1.8445   -1.1587 C   0  0  0  0  0  0  0  0  0  0  0  0
   -0.1623   -1.5496   -2.4493 C   0  0  0  0  0  0  0  0  0  0  0  0
   -0.0673   -0.2521   -2.9455 C   0  0  0  0  0  0  0  0  0  0  0  0
    0.4856    0.7836   -2.1773 C   0  0  0  0  0  0  0  0  0  0  0  0
    2.3147    0.6245    2.5377 C   0  0  0  0  0  0  0  0  0  0  0  0
    2.2450    1.8553    3.1907 C   0  0  0  0  0  0  0  0  0  0  0  0
    3.0599    2.1500    4.2885 C   0  0  0  0  0  0  0  0  0  0  0  0
    3.9009    1.1667    4.8145 C   0  0  0  0  0  0  0  0  0  0  0  0
    3.8337   -0.1275    4.2939 C   0  0  0  0  0  0  0  0  0  0  0  0
    3.0460   -0.3927    3.1688 C   0  0  0  0  0  0  0  0  0  0  0  0
    4.9277    1.5476    5.8540 C   0  0  0  0  0  0  0  0  0  0  0  0
    5.1306    0.5266    6.8193 O   0  0  0  0  0  0  0  0  0  0  0  0
    2.2981    2.9149    1.0471 H   0  0  0  0  0  0  0  0  0  0  0  0
    3.4151    0.9478   -1.4289 H   0  0  0  0  0  0  0  0  0  0  0  0
    5.6301    2.4819   -2.0253 H   0  0  0  0  0  0  0  0  0  0  0  0
    5.4170    0.0491   -2.5373 H   0  0  0  0  0  0  0  0  0  0  0  0
    5.9662    0.9406   -3.9550 H   0  0  0  0  0  0  0  0  0  0  0  0
    3.1089   -0.0011   -3.3950 H   0  0  0  0  0  0  0  0  0  0  0  0
    4.1982   -0.6564   -4.5973 H   0  0  0  0  0  0  0  0  0  0  0  0
    2.4547    0.9388   -5.5146 H   0  0  0  0  0  0  0  0  0  0  0  0
    4.1159    1.3550   -5.9230 H   0  0  0  0  0  0  0  0  0  0  0  0
    2.3108    2.7021   -3.8743 H   0  0  0  0  0  0  0  0  0  0  0  0
    3.0182    3.4035   -5.3165 H   0  0  0  0  0  0  0  0  0  0  0  0
    5.2692    3.2758   -4.3534 H   0  0  0  0  0  0  0  0  0  0  0  0
    4.2047    4.1330   -3.2550 H   0  0  0  0  0  0  0  0  0  0  0  0
    0.5368    3.4445   -1.3348 H   0  0  0  0  0  0  0  0  0  0  0  0
   -0.7235    2.2488    0.6801 H   0  0  0  0  0  0  0  0  0  0  0  0
   -1.4051    3.5672   -0.2273 H   0  0  0  0  0  0  0  0  0  0  0  0
   -0.2844    3.6778    2.5865 H   0  0  0  0  0  0  0  0  0  0  0  0
   -1.9215    3.9688    2.0395 H   0  0  0  0  0  0  0  0  0  0  0  0
   -0.7304    6.0852    2.5783 H   0  0  0  0  0  0  0  0  0  0  0  0
   -1.2402    6.0301    0.8931 H   0  0  0  0  0  0  0  0  0  0  0  0
    1.5638    5.3163    1.9148 H   0  0  0  0  0  0  0  0  0  0  0  0
    1.1089    6.8245    1.1221 H   0  0  0  0  0  0  0  0  0  0  0  0
    0.4297    5.6432   -0.9014 H   0  0  0  0  0  0  0  0  0  0  0  0
    2.0911    5.3475   -0.5267 H   0  0  0  0  0  0  0  0  0  0  0  0
    0.2161   -2.8497   -0.7604 H   0  0  0  0  0  0  0  0  0  0  0  0
   -0.5845   -2.3404   -3.0657 H   0  0  0  0  0  0  0  0  0  0  0  0
   -0.4261   -0.0387   -3.9511 H   0  0  0  0  0  0  0  0  0  0  0  0
    0.5607    1.7753   -2.6033 H   0  0  0  0  0  0  0  0  0  0  0  0
    1.5825    2.6431    2.8493 H   0  0  0  0  0  0  0  0  0  0  0  0
    3.0687    3.1585    4.6824 H   0  0  0  0  0  0  0  0  0  0  0  0
    4.4332   -0.9293    4.7233 H   0  0  0  0  0  0  0  0  0  0  0  0
    3.0380   -1.4008    2.7570 H   0  0  0  0  0  0  0  0  0  0  0  0
    4.6240    2.4541    6.3886 H   0  0  0  0  0  0  0  0  0  0  0  0
    5.8808    1.7530    5.3544 H   0  0  0  0  0  0  0  0  0  0  0  0
    4.2491    0.1910    7.0598 H   0  0  0  0  0  0  0  0  0  0  0  0
  1 21  2  0  0  0  0
  1  2  1  0  0  0  0
  1 26  1  0  0  0  0
  2  3  1  0  0  0  0
  2 19  1  0  0  0  0
  3  4  1  0  0  0  0
  3 13  1  0  0  0  0
  3 34  1  1  0  0  0
  4  5  2  0  0  0  0
  4  6  1  0  0  0  0
  6  7  1  0  0  0  0
  6 35  1  0  0  0  0
  7 12  1  0  0  0  0
  7  8  1  0  0  0  0
  7 36  1  0  0  0  0
  8  9  1  0  0  0  0
  8 37  1  0  0  0  0
  8 38  1  0  0  0  0
  9 10  1  0  0  0  0
  9 39  1  0  0  0  0
  9 40  1  0  0  0  0
 10 11  1  0  0  0  0
 10 41  1  0  0  0  0
 10 42  1  0  0  0  0
 11 12  1  0  0  0  0
 11 43  1  0  0  0  0
 11 44  1  0  0  0  0
 12 45  1  0  0  0  0
 12 46  1  0  0  0  0
 13 18  1  0  0  0  0
 13 14  1  0  0  0  0
 13 47  1  0  0  0  0
 14 15  1  0  0  0  0
 14 48  1  0  0  0  0
 14 49  1  0  0  0  0
 15 16  1  0  0  0  0
 15 50  1  0  0  0  0
 15 51  1  0  0  0  0
 16 17  1  0  0  0  0
 16 52  1  0  0  0  0
 16 53  1  0  0  0  0
 17 18  1  0  0  0  0
 17 54  1  0  0  0  0
 17 55  1  0  0  0  0
 18 56  1  0  0  0  0
 18 57  1  0  0  0  0
 19 25  2  0  0  0  0
 19 20  1  0  0  0  0
 20 21  1  0  0  0  0
 20 22  2  0  0  0  0
 22 23  1  0  0  0  0
 22 58  1  0  0  0  0
 23 24  2  0  0  0  0
 23 59  1  0  0  0  0
 24 25  1  0  0  0  0
 24 60  1  0  0  0  0
 25 61  1  0  0  0  0
 26 31  2  0  0  0  0
 26 27  1  0  0  0  0
 27 28  2  0  0  0  0
 27 62  1  0  0  0  0
 28 29  1  0  0  0  0
 28 63  1  0  0  0  0
 29 30  2  0  0  0  0
 29 32  1  0  0  0  0
 30 31  1  0  0  0  0
 30 64  1  0  0  0  0
 31 65  1  0  0  0  0
 32 33  1  0  0  0  0
 32 66  1  0  0  0  0
 32 67  1  0  0  0  0
 33 68  1  0  0  0  0
M  END
$$$$
