@<TRIPOS>MOLECULE
FXR_9
 69 74 0 0 0
SMALL
GASTEIGER
****
Structure written by MMmdl.
@<TRIPOS>ATOM
      1 O           3.0313    0.5180   -1.2118 O.2     1  UNL1       -0.2735
      2 C           2.4627    0.0852   -0.2154 C.2     1  UNL1        0.2365
      3 N           1.1817    0.5029    0.1058 N.am    1  UNL1       -0.3107
      4 C           0.3934    1.3165   -0.8189 C.3     1  UNL1        0.0232
      5 C          -0.4737    0.4307   -1.7230 C.3     1  UNL1       -0.0345
      6 C          -1.6384   -0.2120   -0.9701 C.3     1  UNL1       -0.0514
      7 C          -2.4809    0.8296   -0.2392 C.3     1  UNL1       -0.0529
      8 C          -1.6344    1.7066    0.6768 C.3     1  UNL1       -0.0514
      9 C          -0.4585    2.3408   -0.0642 C.3     1  UNL1       -0.0345
     10 C           3.1083   -0.8894    0.7944 C.3     1  UNL1        0.1151
     11 C           2.2599   -2.1608    1.2335 C.3     1  UNL1       -0.0116
     12 C           1.3481   -2.8934    0.2181 C.3     1  UNL1       -0.0479
     13 C           1.9140   -4.1453   -0.4531 C.3     1  UNL1       -0.0527
     14 C           2.6586   -5.0653    0.4982 C.3     1  UNL1       -0.0530
     15 C           3.6646   -4.2957    1.3440 C.3     1  UNL1       -0.0527
     16 C           2.9829   -3.1821    2.1281 C.3     1  UNL1       -0.0479
     17 N           4.5861   -0.9492    0.7222 N.ar    1  UNL1       -0.3113
     18 C           5.3699   -0.4978    1.7969 C.ar    1  UNL1        0.0698
     19 C           5.0756   -0.1057    3.1163 C.ar    1  UNL1       -0.0360
     20 C           6.1198    0.4044    3.8978 C.ar    1  UNL1       -0.0597
     21 C           7.4136    0.5075    3.3940 C.ar    1  UNL1       -0.0596
     22 C           7.7004    0.0804    2.0944 C.ar    1  UNL1       -0.0342
     23 C           6.6608   -0.4257    1.2979 C.ar    1  UNL1        0.0897
     24 N           6.7050   -0.8806    0.0203 N.ar    1  UNL1       -0.2275
     25 C           5.4647   -1.1790   -0.3485 C.ar    1  UNL1        0.1425
     26 C           5.2132   -1.6844   -1.7203 C.ar    1  UNL1        0.0175
     27 C           6.2891   -1.8657   -2.6132 C.ar    1  UNL1       -0.0504
     28 C           6.1109   -2.4280   -3.8959 C.ar    1  UNL1       -0.0503
     29 C           4.8391   -2.8269   -4.3117 C.ar    1  UNL1        0.0205
     30 C           3.7667   -2.5782   -3.4603 C.ar    1  UNL1       -0.0503
     31 C           3.9623   -2.0206   -2.1985 C.ar    1  UNL1       -0.0504
     32 C           4.5535   -3.5443   -5.5466 C.ar    1  UNL1        0.1793
     33 N           5.3012   -3.5522   -6.6889 N.ar    1  UNL1       -0.2388
     34 N           4.7221   -4.3214   -7.6227 N.ar    1  UNL1       -0.0464
     35 N           3.6108   -4.7756   -7.0602 N.ar    1  UNL1       -0.0229
     36 N           3.4907   -4.2967   -5.7804 N.ar    1  UNL1       -0.1084
     37 H           0.7352    0.1671    0.9486 H       1  UNL1        0.1490
     38 H           1.0909    1.8694   -1.4591 H       1  UNL1        0.0498
     39 H           0.1343   -0.3532   -2.1930 H       1  UNL1        0.0283
     40 H          -0.8794    1.0441   -2.5375 H       1  UNL1        0.0283
     41 H          -1.2575   -0.9451   -0.2509 H       1  UNL1        0.0266
     42 H          -2.2690   -0.7621   -1.6750 H       1  UNL1        0.0266
     43 H          -3.2577    0.3265    0.3470 H       1  UNL1        0.0265
     44 H          -2.9946    1.4603   -0.9752 H       1  UNL1        0.0265
     45 H          -1.2640    1.1076    1.5172 H       1  UNL1        0.0266
     46 H          -2.2611    2.4966    1.1063 H       1  UNL1        0.0266
     47 H          -0.8527    3.0685   -0.7861 H       1  UNL1        0.0283
     48 H           0.1618    2.9011    0.6446 H       1  UNL1        0.0283
     49 H           2.9829   -0.2614    1.6906 H       1  UNL1        0.0627
     50 H           1.5188   -1.7034    1.9121 H       1  UNL1        0.0325
     51 H           0.9424   -2.2120   -0.5340 H       1  UNL1        0.0269
     52 H           0.4706   -3.2415    0.7865 H       1  UNL1        0.0269
     53 H           2.5916   -3.8810   -1.2583 H       1  UNL1        0.0265
     54 H           1.0987   -4.6984   -0.9363 H       1  UNL1        0.0265
     55 H           3.1772   -5.8411   -0.0780 H       1  UNL1        0.0265
     56 H           1.9391   -5.5804    1.1456 H       1  UNL1        0.0265
     57 H           4.4510   -3.8824    0.7050 H       1  UNL1        0.0265
     58 H           4.1477   -4.9890    2.0415 H       1  UNL1        0.0265
     59 H           2.2317   -3.6488    2.7831 H       1  UNL1        0.0269
     60 H           3.6919   -2.6943    2.8011 H       1  UNL1        0.0269
     61 H           4.0776   -0.1734    3.5342 H       1  UNL1        0.0639
     62 H           5.9140    0.7358    4.9137 H       1  UNL1        0.0618
     63 H           8.2064    0.9231    4.0111 H       1  UNL1        0.0618
     64 H           8.7048    0.1538    1.6912 H       1  UNL1        0.0639
     65 H           7.2974   -1.5861   -2.3039 H       1  UNL1        0.0625
     66 H           6.9891   -2.5741   -4.5192 H       1  UNL1        0.0625
     67 H           2.7498   -2.8467   -3.7584 H       1  UNL1        0.0625
     68 H           3.0757   -1.8745   -1.6085 H       1  UNL1        0.0625
     69 H           6.1622   -3.0666   -6.9046 H       1  UNL1        0.1923
@<TRIPOS>BOND
     1     1     2    2
     2     2     3   am
     3     2    10    1
     4     3     4    1
     5     4     9    1
     6     4     5    1
     7     5     6    1
     8     6     7    1
     9     7     8    1
    10     8     9    1
    11    10    11    1
    12    10    17    1
    13    11    16    1
    14    11    12    1
    15    12    13    1
    16    13    14    1
    17    14    15    1
    18    15    16    1
    19    17    25   ar
    20    17    18   ar
    21    18    23   ar
    22    18    19   ar
    23    19    20   ar
    24    20    21   ar
    25    21    22   ar
    26    22    23   ar
    27    23    24   ar
    28    24    25   ar
    29    25    26    1
    30    26    31   ar
    31    26    27   ar
    32    27    28   ar
    33    28    29   ar
    34    29    30   ar
    35    29    32    1
    36    30    31   ar
    37    32    36   ar
    38    32    33   ar
    39    33    34   ar
    40    34    35   ar
    41    35    36   ar
    42     3    37    1
    43     4    38    1
    44     5    39    1
    45     5    40    1
    46     6    41    1
    47     6    42    1
    48     7    43    1
    49     7    44    1
    50     8    45    1
    51     8    46    1
    52     9    47    1
    53     9    48    1
    54    10    49    1
    55    11    50    1
    56    12    51    1
    57    12    52    1
    58    13    53    1
    59    13    54    1
    60    14    55    1
    61    14    56    1
    62    15    57    1
    63    15    58    1
    64    16    59    1
    65    16    60    1
    66    19    61    1
    67    20    62    1
    68    21    63    1
    69    22    64    1
    70    27    65    1
    71    28    66    1
    72    30    67    1
    73    31    68    1
    74    33    69    1
