@<TRIPOS>MOLECULE
    MOL
   66    67     0     0     0
SMALL
USER_CHARGES


@<TRIPOS>ATOM
      1 C1          4.2044    0.4234    1.4822 C331       1 MOL      0.000000
      2 O1          3.5894   -0.0377    0.2799 O301       1 MOL      0.000000
      3 C2          3.7517    0.7734   -0.8120 C261       1 MOL      0.000000
      4 C3          4.9210    1.5279   -0.9923 C261       1 MOL      0.000000
      5 C4          5.0504    2.4076   -2.0654 C261       1 MOL      0.000000
      6 C5          4.0201    2.5188   -2.9916 C261       1 MOL      0.000000
      7 C6          2.8971    1.7060   -2.8771 C261       1 MOL      0.000000
      8 C7          2.7478    0.8268   -1.7929 C261       1 MOL      0.000000
      9 O2          1.5654    0.1400   -1.8535 O301       1 MOL      0.000000
     10 C8          1.2194   -0.7401   -0.7965 C331       1 MOL      0.000000
     11 N1          4.1046    3.4696   -4.0560 N301       1 MOL      0.000000
     12 C9          3.7727    4.8881   -3.8035 C321       1 MOL      0.000000
     13 C10         2.3110    5.2931   -3.9836 C2O1       1 MOL      0.000000
     14 O3          2.0130    6.2807   -4.6547 O2D1       1 MOL      0.000000
     15 N2          1.3672    4.5571   -3.2918 N2S1       1 MOL      0.000000
     16 C11        -0.0971    4.7712   -3.3741 C311       1 MOL      0.000000
     17 C12        -0.6925    4.2182   -4.7242 C311       1 MOL      0.000000
     18 C13        -2.2282    4.2872   -4.7733 C331       1 MOL      0.000000
     19 C14        -0.1686    4.9440   -5.9700 C331       1 MOL      0.000000
     20 C15        -0.8235    4.1629   -2.1199 C311       1 MOL      0.000000
     21 C16        -0.6210    2.6540   -1.9711 C331       1 MOL      0.000000
     22 C17        -0.4363    4.8525   -0.8053 C331       1 MOL      0.000000
     23 S1          5.0819    3.0520   -5.3841 S3O2       1 MOL      0.000000
     24 O4          5.4109    4.2493   -6.1398 O2P1       1 MOL      0.000000
     25 O5          6.1264    2.1343   -4.9659 O2P1       1 MOL      0.000000
     26 C18         3.9194    2.1287   -6.3584 C261       1 MOL      0.000000
     27 C19         3.1121    2.8062   -7.2708 C261       1 MOL      0.000000
     28 C20         2.1048    2.1122   -7.9374 C261       1 MOL      0.000000
     29 C21         1.9097    0.7456   -7.6959 C261       1 MOL      0.000000
     30 C22         0.7629    0.0148   -8.3271 C331       1 MOL      0.000000
     31 C23         2.7827    0.0625   -6.8366 C261       1 MOL      0.000000
     32 C24         3.7958    0.7492   -6.1696 C261       1 MOL      0.000000
     33 H1          3.7883   -0.1496    2.3158 HGA3       1 MOL      0.000000
     34 H2          3.9903    1.4831    1.6653 HGA3       1 MOL      0.000000
     35 H3          5.2830    0.2396    1.4619 HGA3       1 MOL      0.000000
     36 H4          5.7617    1.4387   -0.3119 HG61       1 MOL      0.000000
     37 H5          5.9668    2.9795   -2.1851 HG61       1 MOL      0.000000
     38 H6          2.1102    1.7631   -3.6263 HG61       1 MOL      0.000000
     39 H7          0.2404   -1.1690   -1.0350 HGA3       1 MOL      0.000000
     40 H8          1.1118   -0.2024    0.1507 HGA3       1 MOL      0.000000
     41 H9          1.9279   -1.5700   -0.7242 HGA3       1 MOL      0.000000
     42 H10         4.3480    5.5332   -4.4773 HGA2       1 MOL      0.000000
     43 H11         4.0817    5.1798   -2.7939 HGA2       1 MOL      0.000000
     44 H12         1.7149    3.9859   -2.5333 HGP1       1 MOL      0.000000
     45 H13        -0.2571    5.8579   -3.3542 HGA1       1 MOL      0.000000
     46 H14        -0.4019    3.1657   -4.8319 HGA1       1 MOL      0.000000
     47 H15        -2.5927    5.2714   -4.4595 HGA3       1 MOL      0.000000
     48 H16        -2.6829    3.5245   -4.1347 HGA3       1 MOL      0.000000
     49 H17        -2.6032    4.1024   -5.7867 HGA3       1 MOL      0.000000
     50 H18        -0.2721    6.0296   -5.8714 HGA3       1 MOL      0.000000
     51 H19        -0.7169    4.6408   -6.8688 HGA3       1 MOL      0.000000
     52 H20         0.8774    4.6951   -6.1619 HGA3       1 MOL      0.000000
     53 H21        -1.9018    4.3313   -2.2242 HGA1       1 MOL      0.000000
     54 H22         0.4172    2.4328   -1.7299 HGA3       1 MOL      0.000000
     55 H23        -0.8976    2.1065   -2.8758 HGA3       1 MOL      0.000000
     56 H24        -1.2297    2.2562   -1.1515 HGA3       1 MOL      0.000000
     57 H25         0.6461    4.8801   -0.6531 HGA3       1 MOL      0.000000
     58 H26        -0.8766    4.3248    0.0503 HGA3       1 MOL      0.000000
     59 H27        -0.8170    5.8784   -0.7823 HGA3       1 MOL      0.000000
     60 H28         3.2374    3.8731   -7.4425 HG61       1 MOL      0.000000
     61 H29         1.4560    2.6522   -8.6234 HG61       1 MOL      0.000000
     62 H30         0.1128    0.6981   -8.8847 HGA3       1 MOL      0.000000
     63 H31         0.1523   -0.4545   -7.5479 HGA3       1 MOL      0.000000
     64 H32         1.1285   -0.7526   -9.0137 HGA3       1 MOL      0.000000
     65 H33         2.6566   -1.0040   -6.6616 HG61       1 MOL      0.000000
     66 H34         4.4481    0.2169   -5.4810 HG61       1 MOL      0.000000
@<TRIPOS>BOND
     1   16   45 un
     2   22   58 un
     3   21   56 un
     4   11   12 un
     5   23   24 un
     6    4   36 un
     7   26   32 un
     8    6    7 un
     9   29   30 un
    10    5   37 un
    11   30   64 un
    12    9   10 un
    13   16   17 un
    14   31   32 un
    15   20   53 un
    16   16   20 un
    17   18   47 un
    18   28   61 un
    19   22   57 un
    20    2    3 un
    21   17   18 un
    22    1   33 un
    23    7    8 un
    24   29   31 un
    25   13   14 un
    26   30   63 un
    27   10   41 un
    28   19   50 un
    29   26   27 un
    30    4    5 un
    31   11   23 un
    32   28   29 un
    33   17   19 un
    34    7   38 un
    35   20   22 un
    36    1   34 un
    37   15   44 un
    38   12   43 un
    39   27   60 un
    40   13   15 un
    41   23   25 un
    42   30   62 un
    43    5    6 un
    44   21   54 un
    45   32   66 un
    46    3    4 un
    47   15   16 un
    48   10   39 un
    49   19   51 un
    50   12   13 un
    51   20   21 un
    52    1   35 un
    53   10   40 un
    54    1    2 un
    55    3    8 un
    56   23   26 un
    57   17   46 un
    58    6   11 un
    59   27   28 un
    60   21   55 un
    61   22   59 un
    62   31   65 un
    63   12   42 un
    64   19   52 un
    65   18   49 un
    66    8    9 un
    67   18   48 un

