@<TRIPOS>MOLECULE
    MOL
   53    56     0     0     0
SMALL
USER_CHARGES


@<TRIPOS>ATOM
      1 C          43.9620   10.7480    3.8130 C          1 UNL      0.000000
      2 C          43.7180   11.2940    2.5070 C          1 UNL      0.000000
      3 N          44.1000   10.7750    1.2550 N          1 UNL      0.000000
      4 H          44.3910    9.8240    1.0710 H          1 UNL      0.000000
      5 C          43.6790   11.7110    0.3020 C          1 UNL      0.000000
      6 C          43.7480   12.8970    1.0430 C          1 UNL      0.000000
      7 C          43.7410   14.0830    0.2850 C          1 UNL      0.000000
      8 H          44.7240   14.2740   -0.1860 H          1 UNL      0.000000
      9 C          42.7280   14.1310   -0.6550 C          1 UNL      0.000000
     10 H          42.2770   15.0910   -0.8960 H          1 UNL      0.000000
     11 C          42.4010   12.9450   -1.3090 C          1 UNL      0.000000
     12 H          41.6260   12.9880   -2.0700 H          1 UNL      0.000000
     13 C          42.9970   11.7090   -0.9400 C          1 UNL      0.000000
     14 H          42.6700   10.7920   -1.4200 H          1 UNL      0.000000
     15 C          42.9480   12.3730    2.0910 C          1 UNL      0.000000
     16 C          41.5910   12.7790    2.6040 C          1 UNL      0.000000
     17 C          41.2160   11.8540    3.7820 C          1 UNL      0.000000
     18 H          41.2120   10.7960    3.4740 H          1 UNL      0.000000
     19 H          40.1780   12.0410    4.0810 H          1 UNL      0.000000
     20 N          42.1130   11.9750    4.9260 N          1 UNL      0.000000
     21 C          41.5760   12.7450    5.9780 C          1 UNL      0.000000
     22 O          40.4320   13.2140    5.9060 O          1 UNL      0.000000
     23 C          43.2820   11.2100    4.9050 C          1 UNL      0.000000
     24 H          43.6560   10.9760    5.8990 H          1 UNL      0.000000
     25 C          42.3120   13.1220    7.2120 C          1 UNL      0.000000
     26 C          43.6860   13.3340    7.2780 C          1 UNL      0.000000
     27 H          44.3360   13.1990    6.4230 H          1 UNL      0.000000
     28 C          44.2440   13.7900    8.4700 C          1 UNL      0.000000
     29 F          45.5690   13.9860    8.5250 F          1 UNL      0.000000
     30 C          43.4710   14.0790    9.5710 C          1 UNL      0.000000
     31 F          44.0340   14.5490   10.7000 F          1 UNL      0.000000
     32 C          42.0950   13.9140    9.5270 C          1 UNL      0.000000
     33 H          41.4660   14.1870   10.3650 H          1 UNL      0.000000
     34 C          41.5250   13.4350    8.3400 C          1 UNL      0.000000
     35 H          40.4300   13.3520    8.2800 H          1 UNL      0.000000
     36 C          41.5850   14.2660    2.9820 C          1 UNL      0.000000
     37 H          40.9450   14.8520    2.3120 H          1 UNL      0.000000
     38 H          41.1930   14.4230    3.9920 H          1 UNL      0.000000
     39 H          42.5920   14.6920    2.9590 H          1 UNL      0.000000
     40 C          40.4770   12.4800    1.5460 C          1 UNL      0.000000
     41 H          39.4680   12.5050    1.9550 H          1 UNL      0.000000
     42 H          40.4500   13.2380    0.7490 H          1 UNL      0.000000
     43 H          40.6200   11.5170    1.0500 H          1 UNL      0.000000
     44 C          45.1980    9.9860    4.1980 C          1 UNL      0.000000
     45 O          46.1350    9.7950    3.4340 O          1 UNL      0.000000
     46 O          45.0880    9.4390    5.4360 O          1 UNL      0.000000
     47 C          44.6780    8.0600    5.4500 C          1 UNL      0.000000
     48 H          45.4370    7.4870    5.9920 H          1 UNL      0.000000
     49 H          44.6040    7.6270    4.4460 H          1 UNL      0.000000
     50 C          43.3420    7.9750    6.1670 C          1 UNL      0.000000
     51 H          42.5840    8.5480    5.6220 H          1 UNL      0.000000
     52 H          42.9860    6.9400    6.2060 H          1 UNL      0.000000
     53 H          43.4120    8.3620    7.1880 H          1 UNL      0.000000
@<TRIPOS>BOND
     1   50   52 un
     2   11   12 un
     3   23   24 un
     4    6    7 un
     5    9   10 un
     6    1   44 un
     7    5   13 un
     8   26   28 un
     9   47   48 un
    10   20   23 un
    11   25   34 un
    12   32   33 un
    13   28   30 un
    14    2    3 un
    15   17   18 un
    16   36   38 un
    17   40   42 un
    18    7    8 un
    19   47   49 un
    20   50   51 un
    21   13   14 un
    22   16   36 un
    23   21   22 un
    24   30   32 un
    25    2   15 un
    26    9   11 un
    27   11   13 un
    28   26   27 un
    29   16   40 un
    30   28   29 un
    31   17   19 un
    32   36   37 un
    33   40   41 un
    34   44   46 un
    35    1   23 un
    36   47   50 un
    37    5    6 un
    38   30   31 un
    39   50   53 un
    40    3    4 un
    41   15   16 un
    42   17   20 un
    43   20   21 un
    44   44   45 un
    45    1    2 un
    46   34   35 un
    47    7    9 un
    48   21   25 un
    49   46   47 un
    50    6   15 un
    51   25   26 un
    52   36   39 un
    53   40   43 un
    54   16   17 un
    55    3    5 un
    56   32   34 un

