@<TRIPOS>MOLECULE
    MOL
   36    40     0     0     0
SMALL
USER_CHARGES


@<TRIPOS>ATOM
      1 O          40.2916   13.4011    5.0640 O.2        1 UNL1    -0.273100
      2 C          41.1472   12.6274    4.6949 C.2        1 UNL1     0.243100
      3 N          42.2160   13.0159    3.8661 N.am       1 UNL1    -0.304400
      4 C          42.4339   14.3864    3.3921 C.3        1 UNL1     0.071600
      5 C          43.7224   14.5237    2.5616 C.3        1 UNL1     0.019600
      6 C          43.6460   13.7733    1.2309 C.3        1 UNL1     0.001700
      7 C          42.4411   14.2122    0.4027 C.3        1 UNL1     0.000100
      8 C          41.1381   14.1525    1.1955 C.3        1 UNL1     0.001700
      9 C          41.2402   14.8623    2.5489 C.3        1 UNL1     0.019600
     10 C          41.2232   11.1435    5.1316 C.3        1 UNL1     0.162800
     11 C          41.3492   10.0963    3.9346 C.3        1 UNL1     0.029700
     12 C          40.0964   10.1127    3.0268 C.3        1 UNL1     0.002400
     13 C          40.1467   11.1699    1.9288 C.3        1 UNL1     0.000100
     14 C          41.3770   11.0548    1.0410 C.3        1 UNL1     0.000000
     15 C          42.6781   10.8851    1.8176 C.3        1 UNL1     0.000100
     16 C          42.5793    9.9457    3.0171 C.3        1 UNL1     0.002400
     17 N          42.0593   10.9234    6.3480 N.ar       1 UNL1    -0.304700
     18 C          42.7010   11.9311    7.0592 C.ar       1 UNL1     0.079200
     19 C          42.7299   13.3273    6.9443 C.ar       1 UNL1     0.018800
     20 C          43.5629   14.0402    7.8138 C.ar       1 UNL1     0.001600
     21 C          44.3354   13.3811    8.7730 C.ar       1 UNL1     0.001600
     22 C          44.2369   11.9958    8.9307 C.ar       1 UNL1     0.020600
     23 C          43.3913   11.2771    8.0741 C.ar       1 UNL1     0.098700
     24 N          43.1285    9.9462    8.0730 N.ar       1 UNL1    -0.226700
     25 C          42.3842    9.7039    7.0052 C.ar       1 UNL1     0.147000
     26 C          42.1014    8.3007    6.6001 C.ar       1 UNL1     0.068300
     27 C          40.9267    7.6231    6.9683 C.ar       1 UNL1     0.009100
     28 C          40.7393    6.2604    6.6432 C.ar       1 UNL1     0.037200
     29 C          41.6625    5.6120    5.8233 C.ar       1 UNL1     0.141800
     30 O          41.5797    4.3344    5.3461 O.3        1 UNL1    -0.471300
     31 C          41.9372    3.2953    6.2504 C.3        1 UNL1     0.252500
     32 C          42.8285    6.2767    5.4700 C.ar       1 UNL1     0.073800
     33 C          43.1057    7.5062    6.0548 C.ar       1 UNL1     0.144600
     34 O          44.3612    7.9435    6.3537 O.3        1 UNL1    -0.471200
     35 C          45.4566    7.3864    5.6622 C.3        1 UNL1     0.252500
     36 H          42.9317   12.3379    3.6376 H          1 UNL1     0.149400
@<TRIPOS>BOND
     1   11   12 un
     2   23   24 un
     3    6    7 un
     4   29   30 un
     5   11   16 un
     6   26   33 un
     7   19   20 un
     8   17   25 un
     9   32   33 un
    10    2    3 un
    11   17   18 un
    12   33   34 un
    13    7    8 un
    14   13   14 un
    15   21   22 un
    16   26   27 un
    17    3   36 un
    18    4    5 un
    19   28   29 un
    20   29   32 un
    21    5    6 un
    22   30   31 un
    23   10   11 un
    24   10   17 un
    25    3    4 un
    26    2   10 un
    27   15   16 un
    28   18   23 un
    29   12   13 un
    30   20   21 un
    31   24   25 un
    32    1    2 un
    33   18   19 un
    34   34   35 un
    35   27   28 un
    36   14   15 un
    37   22   23 un
    38    4    9 un
    39   25   26 un
    40    8    9 un

