@<TRIPOS>MOLECULE
    MOL
   69    74     0     0     0
SMALL
USER_CHARGES


@<TRIPOS>ATOM
      1 C          31.6000   25.2520    0.4340 C          1 UNL      0.000000
      2 H          31.8760   24.2910   -0.0270 H          1 UNL      0.000000
      3 C          30.4510   25.7120   -0.5660 C          1 UNL      0.000000
      4 H          31.0370   25.9640   -1.4670 H          1 UNL      0.000000
      5 C          29.7390   27.0300   -0.2200 C          1 UNL      0.000000
      6 H          30.4200   27.7430    0.2510 H          1 UNL      0.000000
      7 H          29.4270   27.5030   -1.1640 H          1 UNL      0.000000
      8 C          28.4900   26.8370    0.6310 C          1 UNL      0.000000
      9 H          28.0300   27.8110    0.8290 H          1 UNL      0.000000
     10 H          28.7570   26.4040    1.6000 H          1 UNL      0.000000
     11 C          27.4780   25.9450   -0.0760 C          1 UNL      0.000000
     12 H          27.1200   26.4340   -0.9900 H          1 UNL      0.000000
     13 H          26.6030   25.7970    0.5670 H          1 UNL      0.000000
     14 C          28.0780   24.5950   -0.4280 C          1 UNL      0.000000
     15 H          27.3790   24.0370   -1.0640 H          1 UNL      0.000000
     16 H          28.1510   24.0160    0.4860 H          1 UNL      0.000000
     17 C          29.4350   24.6870   -1.1270 C          1 UNL      0.000000
     18 H          29.2090   25.0080   -2.1560 H          1 UNL      0.000000
     19 H          29.8720   23.6920   -1.2350 H          1 UNL      0.000000
     20 N          32.9180   25.9270    0.4390 N          1 UNL      0.000000
     21 C          33.5580   26.7450   -0.5070 C          1 UNL      0.000000
     22 N          34.6150   27.3260    0.0480 N          1 UNL      0.000000
     23 C          34.6680   26.9390    1.3480 C          1 UNL      0.000000
     24 C          35.5550   27.3450    2.3570 C          1 UNL      0.000000
     25 H          36.3270   28.0760    2.1390 H          1 UNL      0.000000
     26 C          35.4100   26.8150    3.6430 C          1 UNL      0.000000
     27 H          36.0750   27.1400    4.4380 H          1 UNL      0.000000
     28 C          34.4150   25.8770    3.9070 C          1 UNL      0.000000
     29 H          34.3180   25.4700    4.9120 H          1 UNL      0.000000
     30 C          33.5290   25.4590    2.9070 C          1 UNL      0.000000
     31 H          32.7630   24.7280    3.1420 H          1 UNL      0.000000
     32 C          33.6620   26.0270    1.6270 C          1 UNL      0.000000
     33 C          33.2420   27.0110   -1.9310 C          1 UNL      0.000000
     34 C          31.9600   27.0390   -2.4430 C          1 UNL      0.000000
     35 H          31.0990   26.9270   -1.8110 H          1 UNL      0.000000
     36 C          31.6990   27.2020   -3.8010 C          1 UNL      0.000000
     37 H          30.6590   27.1840   -4.1370 H          1 UNL      0.000000
     38 C          32.7330   27.3440   -4.7220 C          1 UNL      0.000000
     39 C          34.0400   27.3990   -4.2350 C          1 UNL      0.000000
     40 H          34.8930   27.5290   -4.8950 H          1 UNL      0.000000
     41 C          34.2850   27.2310   -2.8540 C          1 UNL      0.000000
     42 H          35.3180   27.2540   -2.5030 H          1 UNL      0.000000
     43 C          32.3690   27.3610   -6.1320 C          1 UNL      0.000000
     44 N          33.2110   27.3130   -7.1520 N          1 UNL      0.000000
     45 N          32.4570   27.3440   -8.2980 N          1 UNL      0.000000
     46 N          31.1660   27.3970   -8.0010 N          1 UNL      0.000000
     47 N          31.1120   27.3990   -6.6610 N          1 UNL      0.000000
     48 H          30.2120   27.4070   -6.1980 H          1 UNL      0.000000
     49 O          31.6480   23.6850    2.3190 O          1 UNL      0.000000
     50 C          31.1690   24.6910    1.8060 C          1 UNL      0.000000
     51 N          30.1380   25.3770    2.4260 N          1 UNL      0.000000
     52 H          29.7260   26.1860    1.9790 H          1 UNL      0.000000
     53 C          29.7140   25.0470    3.7870 C          1 UNL      0.000000
     54 H          29.3090   24.0280    3.7740 H          1 UNL      0.000000
     55 C          28.6000   25.9850    4.2600 C          1 UNL      0.000000
     56 H          27.7990   26.0290    3.5140 H          1 UNL      0.000000
     57 H          28.1600   25.5710    5.1780 H          1 UNL      0.000000
     58 C          29.0990   27.3980    4.5570 C          1 UNL      0.000000
     59 H          28.2830   27.9880    4.9900 H          1 UNL      0.000000
     60 H          29.3850   27.8950    3.6230 H          1 UNL      0.000000
     61 C          30.2850   27.3960    5.5150 C          1 UNL      0.000000
     62 H          29.9540   27.0640    6.5070 H          1 UNL      0.000000
     63 H          30.6670   28.4170    5.6330 H          1 UNL      0.000000
     64 C          31.4090   26.4840    5.0290 C          1 UNL      0.000000
     65 H          32.2010   26.4480    5.7840 H          1 UNL      0.000000
     66 H          31.8570   26.9060    4.1240 H          1 UNL      0.000000
     67 C          30.9070   25.0680    4.7510 C          1 UNL      0.000000
     68 H          30.6030   24.6110    5.7000 H          1 UNL      0.000000
     69 H          31.7310   24.4590    4.3580 H          1 UNL      0.000000
@<TRIPOS>BOND
     1    5    8 un
     2   61   64 un
     3   11   12 un
     4   23   24 un
     5   43   44 un
     6   55   56 un
     7    1    3 un
     8    1   50 un
     9   41   42 un
    10   26   28 un
    11   47   48 un
    12   33   41 un
    13   23   32 un
    14   64   65 un
    15   58   61 un
    16   28   30 un
    17   17   18 un
    18   33   34 un
    19   36   38 un
    20   50   51 un
    21   38   43 un
    22   39   41 un
    23   21   22 un
    24   45   46 un
    25   53   54 un
    26   30   32 un
    27   67   69 un
    28   11   13 un
    29   14   17 un
    30   26   27 un
    31    8   11 un
    32   28   29 un
    33   17   19 un
    34   36   37 un
    35   24   26 un
    36    3   17 un
    37   34   36 un
    38   53   55 un
    39   55   57 un
    40    5    6 un
    41   30   31 un
    42   11   14 un
    43   14   16 un
    44   38   39 un
    45   51   53 un
    46   53   67 un
    47   21   33 un
    48   61   62 un
    49   58   60 un
    50    3    4 un
    51   51   52 un
    52   64   67 un
    53   67   68 un
    54   20   21 un
    55   24   25 un
    56   44   45 un
    57    8   10 un
    58    1    2 un
    59   20   32 un
    60   34   35 un
    61   49   50 un
    62   39   40 un
    63    5    7 un
    64   55   58 un
    65   61   63 un
    66   14   15 un
    67   22   23 un
    68    1   20 un
    69   46   47 un
    70   58   59 un
    71   43   47 un
    72    8    9 un
    73    3    5 un
    74   64   66 un

