@<TRIPOS>MOLECULE
    MOL
   57    60     0     0     0
SMALL
USER_CHARGES


@<TRIPOS>ATOM
      1 C          43.4720   12.1190    5.5440 C          1 UNL      0.000000
      2 N          42.6450   12.5770    4.4320 N          1 UNL      0.000000
      3 O          44.6900   12.0280    5.4360 O          1 UNL      0.000000
      4 C          41.5750   11.6240    3.9860 C          1 UNL      0.000000
      5 H          41.3020   11.3140    4.9820 H          1 UNL      0.000000
      6 C          41.6690   10.1390    3.5280 C          1 UNL      0.000000
      7 H          42.6700    9.7360    3.4890 H          1 UNL      0.000000
      8 H          41.1980    9.5470    4.3370 H          1 UNL      0.000000
      9 C          40.8560    9.7030    2.2990 C          1 UNL      0.000000
     10 H          40.6140    8.6350    2.3770 H          1 UNL      0.000000
     11 H          41.4750    9.8190    1.4040 H          1 UNL      0.000000
     12 C          39.5540   10.4730    2.1240 C          1 UNL      0.000000
     13 H          38.8510   10.2700    2.9410 H          1 UNL      0.000000
     14 H          39.0670   10.1850    1.1870 H          1 UNL      0.000000
     15 C          39.8930   11.9340    2.0770 C          1 UNL      0.000000
     16 H          39.0420   12.5470    1.7640 H          1 UNL      0.000000
     17 H          40.6850   12.0510    1.3400 H          1 UNL      0.000000
     18 C          40.3770   12.4060    3.4220 C          1 UNL      0.000000
     19 H          39.5580   12.3470    4.1470 H          1 UNL      0.000000
     20 H          40.6050   13.4700    3.3070 H          1 UNL      0.000000
     21 C          43.4690   13.0800    3.1900 C          1 UNL      0.000000
     22 H          44.4110   13.3740    3.6700 H          1 UNL      0.000000
     23 C          43.0890   14.3870    2.4620 C          1 UNL      0.000000
     24 H          42.6910   15.1550    3.1280 H          1 UNL      0.000000
     25 H          44.0360   14.8010    2.0750 H          1 UNL      0.000000
     26 C          42.1850   14.2250    1.2480 C          1 UNL      0.000000
     27 H          42.0350   15.2070    0.7840 H          1 UNL      0.000000
     28 H          41.2070   13.8530    1.5620 H          1 UNL      0.000000
     29 C          42.7860   13.3040    0.1940 C          1 UNL      0.000000
     30 H          43.6600   13.7830   -0.2650 H          1 UNL      0.000000
     31 H          42.0650   13.1470   -0.6130 H          1 UNL      0.000000
     32 C          43.1980   11.9620    0.7630 C          1 UNL      0.000000
     33 H          43.8650   11.4740    0.0420 H          1 UNL      0.000000
     34 H          42.3210   11.3120    0.8410 H          1 UNL      0.000000
     35 C          43.9250   12.0190    2.1060 C          1 UNL      0.000000
     36 H          44.9770   12.2490    1.8910 H          1 UNL      0.000000
     37 H          43.9860   10.9850    2.4300 H          1 UNL      0.000000
     38 C          42.7990   12.5540    7.9930 C          1 UNL      0.000000
     39 C          42.8740   11.7570    6.8640 C          1 UNL      0.000000
     40 C          42.4590   10.4380    7.3800 C          1 UNL      0.000000
     41 N          42.0410   10.5600    8.6540 N          1 UNL      0.000000
     42 O          42.2570   11.8560    9.0190 O          1 UNL      0.000000
     43 C          42.4720    9.0640    6.8200 C          1 UNL      0.000000
     44 C          43.5820    8.4560    6.2220 C          1 UNL      0.000000
     45 CL         45.0310    9.2860    5.8620 Cl         1 UNL      0.000000
     46 C          43.5430    7.1300    5.7660 C          1 UNL      0.000000
     47 H          44.4360    6.6810    5.3360 H          1 UNL      0.000000
     48 C          42.3690    6.4010    5.8360 C          1 UNL      0.000000
     49 CL         42.3510    4.7650    5.3070 Cl         1 UNL      0.000000
     50 C          41.2120    7.0030    6.3120 C          1 UNL      0.000000
     51 H          40.2730    6.4560    6.3100 H          1 UNL      0.000000
     52 C          41.2650    8.3200    6.8010 C          1 UNL      0.000000
     53 H          40.3370    8.7670    7.1580 H          1 UNL      0.000000
     54 C          43.2410   13.9070    8.3670 C          1 UNL      0.000000
     55 H          43.4280   13.9690    9.4410 H          1 UNL      0.000000
     56 H          44.1920   14.1490    7.8780 H          1 UNL      0.000000
     57 H          42.5130   14.6680    8.0800 H          1 UNL      0.000000
@<TRIPOS>BOND
     1   15   18 un
     2    2    4 un
     3   23   24 un
     4   43   44 un
     5   50   52 un
     6    6    7 un
     7   21   35 un
     8   29   30 un
     9    9   10 un
    10   41   42 un
    11   26   28 un
    12   35   36 un
    13   38   54 un
    14   12   15 un
    15    4   18 un
    16   32   33 un
    17    6    9 un
    18    2   21 un
    19   48   50 un
    20   50   51 un
    21   29   31 un
    22   21   22 un
    23    9   11 un
    24   26   27 un
    25   40   41 un
    26   35   37 un
    27   48   49 un
    28   12   14 un
    29   44   46 un
    30   38   42 un
    31   29   32 un
    32   18   20 un
    33   21   23 un
    34   23   25 un
    35   38   39 un
    36    9   12 un
    37   46   48 un
    38   43   52 un
    39   54   56 un
    40    1   39 un
    41   15   16 un
    42   32   35 un
    43   12   13 un
    44   44   45 un
    45   26   29 un
    46    4    6 un
    47    1    2 un
    48   18   19 un
    49   23   26 un
    50   52   53 un
    51   39   40 un
    52   15   17 un
    53   46   47 un
    54   54   55 un
    55    6    8 un
    56   40   43 un
    57    4    5 un
    58    1    3 un
    59   54   57 un
    60   32   34 un

