@<TRIPOS>MOLECULE
    MOL
   32    35     0     0     0
SMALL
USER_CHARGES


@<TRIPOS>ATOM
      1 C          42.4838   12.7235    9.5962 C.3        1 UNL1     0.051300
      2 C          42.3630   11.2679    9.1806 C.3        1 UNL1     0.208900
      3 O          40.9990   11.0297    8.7893 O.3        1 UNL1    -0.445400
      4 C          40.6266   11.6334    7.6314 C.2        1 UNL1     0.343900
      5 O          39.6226   12.3226    7.4980 O.2        1 UNL1    -0.244800
      6 C          41.6654   11.4748    6.5588 C.2        1 UNL1     0.105700
      7 C          42.1900   10.2126    6.5350 C.2        1 UNL1     0.075600
      8 N          43.1527    9.7011    5.6599 N.am       1 UNL1    -0.253400
      9 C          44.0844   10.6514    5.0635 C.3        1 UNL1     0.102500
     10 C          43.5410   11.3310    3.7886 C.3        1 UNL1     0.039000
     11 C          44.7217   12.2565    3.3452 C.3        1 UNL1     0.006100
     12 C          43.1948   10.3325    2.6759 C.3        1 UNL1     0.006100
     13 C          42.3272   12.1426    4.1605 C.ar       1 UNL1    -0.004000
     14 C          41.8136   12.3564    5.4336 C.ar       1 UNL1     0.060100
     15 N          41.5946   13.7455    5.3763 N.ar       1 UNL1    -0.353200
     16 C          41.8166   14.1176    4.0440 C.ar       1 UNL1     0.056300
     17 C          42.5148   15.1300    3.3407 C.ar       1 UNL1     0.017000
     18 C          42.8223   14.8283    1.9849 C.ar       1 UNL1     0.001500
     19 C          42.2145   13.7626    1.3246 C.ar       1 UNL1     0.000100
     20 C          41.2134   13.0828    1.9950 C.ar       1 UNL1     0.001200
     21 C          41.4568   12.9422    3.3745 C.ar       1 UNL1     0.013000
     22 C          43.4697    8.3558    5.3795 C.2        1 UNL1     0.252800
     23 O          44.4762    8.0612    4.7219 O.2        1 UNL1    -0.269600
     24 C          42.6320    7.1918    5.7646 C.ar       1 UNL1     0.056300
     25 C          41.4785    7.4763    6.5279 C.ar       1 UNL1     0.007000
     26 C          40.6694    6.4564    7.0478 C.ar       1 UNL1     0.032100
     27 C          41.0302    5.1423    6.7958 C.ar       1 UNL1     0.167400
     28 F          40.2704    4.1518    7.2974 F          1 UNL1    -0.201800
     29 C          42.1616    4.8576    6.0643 C.ar       1 UNL1     0.167500
     30 F          42.5076    3.5782    5.8585 F          1 UNL1    -0.201800
     31 C          42.9847    5.8619    5.5610 C.ar       1 UNL1     0.036500
     32 H          41.5347   14.3698    6.1695 H          1 UNL1     0.165900
@<TRIPOS>BOND
     1    8   22 un
     2    6    7 un
     3   16   21 un
     4   29   30 un
     5    6   14 un
     6   27   29 un
     7    9   10 un
     8   16   17 un
     9   19   20 un
    10    2    3 un
    11   17   18 un
    12   24   31 un
    13   13   21 un
    14    7    8 un
    15   15   32 un
    16   29   31 un
    17   13   14 un
    18   26   27 un
    19   10   12 un
    20    4    5 un
    21   22   24 un
    22   10   11 un
    23    3    4 un
    24   15   16 un
    25   20   21 un
    26   24   25 un
    27    4    6 un
    28    1    2 un
    29   18   19 un
    30   27   28 un
    31   14   15 un
    32   22   23 un
    33   25   26 un
    34    8    9 un
    35   10   13 un

