@<TRIPOS>MOLECULE
    MOL
   66    67     0     0     0
SMALL
USER_CHARGES


@<TRIPOS>ATOM
      1 N          42.9550   11.8270    3.8380 N          1 UNL      0.000000
      2 C          42.0780    8.2110    5.8580 C          1 UNL      0.000000
      3 C          43.3730    8.7520    5.9160 C          1 UNL      0.000000
      4 C          43.6370    9.9670    5.2650 C          1 UNL      0.000000
      5 H          44.6450   10.3750    5.2930 H          1 UNL      0.000000
      6 C          42.6380   10.6390    4.5680 C          1 UNL      0.000000
      7 C          41.3390   10.1450    4.5780 C          1 UNL      0.000000
      8 H          40.5320   10.7000    4.1030 H          1 UNL      0.000000
      9 C          41.0600    8.9470    5.2330 C          1 UNL      0.000000
     10 H          40.0270    8.6150    5.2530 H          1 UNL      0.000000
     11 O          44.4930    8.2430    6.5180 O          1 UNL      0.000000
     12 C          45.2310    7.2250    5.8630 C          1 UNL      0.000000
     13 H          46.3060    7.4200    5.9120 H          1 UNL      0.000000
     14 H          44.9720    6.2330    6.2480 H          1 UNL      0.000000
     15 H          44.9460    7.2430    4.8050 H          1 UNL      0.000000
     16 O          41.8240    6.9970    6.4400 O          1 UNL      0.000000
     17 C          42.2210    5.8580    5.6780 C          1 UNL      0.000000
     18 H          41.5860    5.7400    4.7940 H          1 UNL      0.000000
     19 H          43.2800    5.9100    5.3950 H          1 UNL      0.000000
     20 H          42.0860    4.9700    6.3020 H          1 UNL      0.000000
     21 C          42.6910   13.1510    4.4400 C          1 UNL      0.000000
     22 H          43.6170   13.7320    4.5080 H          1 UNL      0.000000
     23 H          42.0340   13.7350    3.7850 H          1 UNL      0.000000
     24 C          42.0260   13.1600    5.8150 C          1 UNL      0.000000
     25 N          42.8610   13.1120    6.9150 N          1 UNL      0.000000
     26 H          43.8340   13.3310    6.7470 H          1 UNL      0.000000
     27 O          40.8060   13.2850    5.9200 O          1 UNL      0.000000
     28 C          42.4020   13.0680    8.3230 C          1 UNL      0.000000
     29 H          41.3350   13.3320    8.3140 H          1 UNL      0.000000
     30 C          43.1480   14.1470    9.1890 C          1 UNL      0.000000
     31 H          42.7360   15.1350    8.9490 H          1 UNL      0.000000
     32 C          42.9710   13.9480   10.6960 C          1 UNL      0.000000
     33 H          43.1190   12.8970   10.9720 H          1 UNL      0.000000
     34 H          43.6820   14.5400   11.2790 H          1 UNL      0.000000
     35 H          41.9600   14.2140   10.9970 H          1 UNL      0.000000
     36 C          44.6450   14.2490    8.8700 C          1 UNL      0.000000
     37 H          45.2400   13.8020    9.6720 H          1 UNL      0.000000
     38 H          44.8800   13.7000    7.9500 H          1 UNL      0.000000
     39 H          44.9710   15.2820    8.7300 H          1 UNL      0.000000
     40 C          42.5400   11.6240    8.9370 C          1 UNL      0.000000
     41 H          42.4110   11.6890   10.0240 H          1 UNL      0.000000
     42 C          41.4840   10.6430    8.3990 C          1 UNL      0.000000
     43 H          41.8150   10.1740    7.4640 H          1 UNL      0.000000
     44 H          41.3020    9.8250    9.1030 H          1 UNL      0.000000
     45 H          40.5340   11.1500    8.1970 H          1 UNL      0.000000
     46 C          43.9130   10.9820    8.6990 C          1 UNL      0.000000
     47 H          44.1900   11.0230    7.6430 H          1 UNL      0.000000
     48 H          44.7030   11.5190    9.2350 H          1 UNL      0.000000
     49 H          43.9310    9.9410    9.0390 H          1 UNL      0.000000
     50 S          44.0920   11.6770    2.5830 S          1 UNL      0.000000
     51 O          44.3040   10.2760    2.2650 O          1 UNL      0.000000
     52 O          45.2220   12.5530    2.8440 O          1 UNL      0.000000
     53 C          43.1800   12.3960    1.2390 C          1 UNL      0.000000
     54 C          42.2830   13.4390    1.4880 C          1 UNL      0.000000
     55 H          42.0830   13.7760    2.5020 H          1 UNL      0.000000
     56 C          41.6820   14.0880    0.4100 C          1 UNL      0.000000
     57 H          41.0160   14.9270    0.5970 H          1 UNL      0.000000
     58 C          41.9650   13.6880   -0.9040 C          1 UNL      0.000000
     59 C          42.8000   12.5850   -1.1280 C          1 UNL      0.000000
     60 H          43.0070   12.2430   -2.1400 H          1 UNL      0.000000
     61 C          43.4070   11.9350   -0.0570 C          1 UNL      0.000000
     62 H          44.0760   11.0980   -0.2430 H          1 UNL      0.000000
     63 C          41.3930   14.4590   -2.0560 C          1 UNL      0.000000
     64 H          41.1500   15.4800   -1.7510 H          1 UNL      0.000000
     65 H          42.1180   14.4870   -2.8770 H          1 UNL      0.000000
     66 H          40.4830   13.9860   -2.4400 H          1 UNL      0.000000
@<TRIPOS>BOND
     1   50   52 un
     2   11   12 un
     3   63   65 un
     4    1   21 un
     5    6    7 un
     6    2   16 un
     7    1   50 un
     8    9   10 un
     9   12   15 un
    10   24   27 un
    11   30   36 un
    12   32   33 un
    13   28   30 un
    14    2    3 un
    15   17   18 un
    16   36   38 un
    17   40   42 un
    18    7    8 un
    19   50   51 un
    20   59   60 un
    21   63   66 un
    22   21   22 un
    23   53   54 un
    24   25   28 un
    25   30   32 un
    26   40   46 un
    27   46   49 un
    28   42   44 un
    29    4    5 un
    30   28   29 un
    31   17   19 un
    32   36   37 un
    33   12   14 un
    34   40   41 un
    35   56   58 un
    36   21   23 un
    37   30   31 un
    38   61   62 un
    39   46   48 un
    40   54   56 un
    41   59   61 un
    42   50   53 un
    43    3   11 un
    44   42   43 un
    45   28   40 un
    46    1    6 un
    47    3    4 un
    48   32   35 un
    49   63   64 un
    50   17   20 un
    51   12   13 un
    52   24   25 un
    53   56   57 un
    54    4    6 un
    55   21   24 un
    56   58   63 un
    57    7    9 un
    58   46   47 un
    59   54   55 un
    60   25   26 un
    61   58   59 un
    62    2    9 un
    63   53   61 un
    64   36   39 un
    65   16   17 un
    66   42   45 un
    67   32   34 un

