@<TRIPOS>MOLECULE
    MOL
   46    49     0     0     0
SMALL
USER_CHARGES


@<TRIPOS>ATOM
      1 C          42.4180   10.6250    5.8520 C          1 UNL      0.000000
      2 N          42.4760   11.7520    6.7300 N          1 UNL      0.000000
      3 C          42.2610   13.1730    6.6590 C          1 UNL      0.000000
      4 C          42.1920   13.8830    7.8120 C          1 UNL      0.000000
      5 H          41.9940   14.9530    7.8190 H          1 UNL      0.000000
      6 C          42.3700   13.2500    9.0940 C          1 UNL      0.000000
      7 H          42.2490   13.8470    9.9930 H          1 UNL      0.000000
      8 C          42.7150   11.9610    9.1640 C          1 UNL      0.000000
      9 H          42.8910   11.4710   10.1150 H          1 UNL      0.000000
     10 C          42.8230   11.1880    7.9790 C          1 UNL      0.000000
     11 N          43.2350    9.9500    7.8870 N          1 UNL      0.000000
     12 C          42.9780    9.5760    6.6060 C          1 UNL      0.000000
     13 C          43.1470    8.1780    6.2290 C          1 UNL      0.000000
     14 C          44.3720    7.6280    5.8200 C          1 UNL      0.000000
     15 F          45.4790    8.3850    5.7750 F          1 UNL      0.000000
     16 C          44.4950    6.2850    5.4410 C          1 UNL      0.000000
     17 H          45.4640    5.9050    5.1340 H          1 UNL      0.000000
     18 C          43.3820    5.4480    5.4850 C          1 UNL      0.000000
     19 H          43.4680    4.4060    5.1950 H          1 UNL      0.000000
     20 C          42.1540    5.9620    5.9020 C          1 UNL      0.000000
     21 H          41.2760    5.3270    5.9500 H          1 UNL      0.000000
     22 C          42.0530    7.3130    6.2720 C          1 UNL      0.000000
     23 F          40.8330    7.7390    6.6430 F          1 UNL      0.000000
     24 C          42.1330   13.9750    5.4040 C          1 UNL      0.000000
     25 H          41.8580   15.0140    5.5800 H          1 UNL      0.000000
     26 H          43.0500   13.8960    4.8130 H          1 UNL      0.000000
     27 H          41.3540   13.5530    4.7530 H          1 UNL      0.000000
     28 N          41.9460   10.4650    4.5710 N          1 UNL      0.000000
     29 H          41.4130    9.6060    4.4330 H          1 UNL      0.000000
     30 C          41.0100   11.3680    2.4540 C          1 UNL      0.000000
     31 C          42.0600   11.1140    3.3260 C          1 UNL      0.000000
     32 C          43.3290   11.6080    2.9250 C          1 UNL      0.000000
     33 C          43.4060   12.7290    2.0890 C          1 UNL      0.000000
     34 H          44.3670   13.1830    1.8560 H          1 UNL      0.000000
     35 C          42.2530   13.2400    1.5150 C          1 UNL      0.000000
     36 H          42.2970   14.1340    0.9010 H          1 UNL      0.000000
     37 C          41.0840   12.4960    1.6140 C          1 UNL      0.000000
     38 H          40.2190   12.7980    1.0310 H          1 UNL      0.000000
     39 C          39.8970   10.3730    2.2750 C          1 UNL      0.000000
     40 H          40.2250    9.3890    1.9640 H          1 UNL      0.000000
     41 H          39.3320   10.2460    3.2020 H          1 UNL      0.000000
     42 H          39.2060   10.7460    1.5130 H          1 UNL      0.000000
     43 C          44.6030   10.8300    3.1910 C          1 UNL      0.000000
     44 H          44.8140   10.0970    2.4200 H          1 UNL      0.000000
     45 H          45.4320   11.5500    3.2690 H          1 UNL      0.000000
     46 H          44.5550   10.3230    4.1630 H          1 UNL      0.000000
@<TRIPOS>BOND
     1    1   28 un
     2   11   12 un
     3   43   44 un
     4    6    7 un
     5   37   38 un
     6   16   17 un
     7   31   32 un
     8   35   36 un
     9   24   27 un
    10   32   33 un
    11    2    3 un
    12   33   34 un
    13   39   41 un
    14   13   14 un
    15   43   45 un
    16    3   24 un
    17    1   12 un
    18    4    5 un
    19   28   29 un
    20   33   35 un
    21   32   43 un
    22   20   22 un
    23   13   22 un
    24   24   26 un
    25   30   39 un
    26   18   20 un
    27   35   37 un
    28   39   42 un
    29   30   31 un
    30   43   46 un
    31   14   16 un
    32   10   11 un
    33    3    4 un
    34    2   10 un
    35   12   13 un
    36   20   21 un
    37   24   25 un
    38    8   10 un
    39    1    2 un
    40   16   18 un
    41    4    6 un
    42   18   19 un
    43   39   40 un
    44   14   15 un
    45   22   23 un
    46    6    8 un
    47   28   31 un
    48   30   37 un
    49    8    9 un

