@<TRIPOS>MOLECULE
MOL
 82 83 0 0 0
SMALL
USER_CHARGES

@<TRIPOS>ATOM
      1 C          43.4064   14.4254   10.0961 C.3     1  UNL11       0.0369
      2 O          43.0195   14.4445    8.7227 O.3     1  UNL11      -0.3772
      3 C          43.1885   13.2644    8.0479 C.3     1  UNL11       0.0845
      4 C          44.4669   12.7931    7.7123 C.3     1  UNL11      -0.0227
      5 C          44.6301   11.6306    6.9613 C.3     1  UNL11      -0.0333
      6 C          43.5126   10.9063    6.5634 C.3     1  UNL11       0.0322
      7 C          42.2457   11.3106    6.9715 C.3     1  UNL11      -0.0069
      8 C          42.0665   12.4877    7.7152 C.3     1  UNL11       0.0858
      9 O          40.7461   12.7191    7.9917 O.3     1  UNL11      -0.3772
     10 C          40.0068   13.5981    7.1596 C.3     1  UNL11       0.0369
     11 N          43.6575    9.7534    5.7305 N.3     1  UNL11      -0.1983
     12 C          43.6615    9.9042    4.2596 C.3     1  UNL11       0.0580
     13 C          43.5670   11.3284    3.7159 C.3     1  UNL11       0.1208
     14 O          44.1150   12.2607    4.3034 O.3     1  UNL11      -0.3760
     15 N          42.7736   11.5218    2.6004 N.3     1  UNL11      -0.2875
     16 C          42.5945   12.8189    1.9060 C.3     1  UNL11       0.0145
     17 C          42.4842   12.6345    0.3449 C.3     1  UNL11      -0.0310
     18 C          42.9244   13.8834   -0.4374 C.3     1  UNL11      -0.0612
     19 C          43.3020   11.4536   -0.1938 C.3     1  UNL11      -0.0612
     20 C          41.3648   13.6029    2.4924 C.3     1  UNL11      -0.0310
     21 C          41.3224   13.6139    4.0214 C.3     1  UNL11      -0.0612
     22 C          41.2681   15.0451    1.9780 C.3     1  UNL11      -0.0612
     23 S          44.3515    8.3731    6.4421 S.3     1  UNL11      -0.1324
     24 O          45.4524    7.9035    5.6173 O.3     1  UNL11      -0.2837
     25 O          44.5363    8.5856    7.8665 O.3     1  UNL11      -0.2837
     26 C          43.0243    7.2101    6.2442 C.3     1  UNL11       0.0647
     27 C          41.7439    7.5662    6.6647 C.3     1  UNL11      -0.0311
     28 C          40.7281    6.6132    6.6408 C.3     1  UNL11      -0.0487
     29 C          40.9913    5.3115    6.1934 C.3     1  UNL11      -0.0438
     30 C          39.9334    4.2515    6.2636 C.3     1  UNL11      -0.0624
     31 C          42.2641    4.9935    5.6976 C.3     1  UNL11      -0.0487
     32 C          43.2843    5.9431    5.7140 C.3     1  UNL11      -0.0311
     33 H          42.1219   10.7800    2.3822 H       1  UNL11       0.1246
     34 H          43.2354   15.3892   10.5283 H       1  UNL11       0.0524
     35 H          44.4453   14.1804   10.1706 H       1  UNL11       0.0524
     36 H          42.8286   13.6923   10.6192 H       1  UNL11       0.0524
     37 H          43.5404   14.1289    7.5247 H       1  UNL11       0.0622
     38 H          44.9464   13.5780    7.1656 H       1  UNL11       0.0291
     39 H          44.8725   12.5172    8.6632 H       1  UNL11       0.0291
     40 H          45.2385   10.9689    7.5417 H       1  UNL11       0.0282
     41 H          45.0394   11.9851    6.0384 H       1  UNL11       0.0282
     42 H          44.2191   10.2016    6.9496 H       1  UNL11       0.0480
     43 H          41.8481   10.5131    7.5639 H       1  UNL11       0.0307
     44 H          41.7631   11.5422    6.0450 H       1  UNL11       0.0307
     45 H          42.3345   13.3043    8.3525 H       1  UNL11       0.0622
     46 H          39.0000   13.6641    7.5159 H       1  UNL11       0.0524
     47 H          40.0066   13.2243    6.1570 H       1  UNL11       0.0524
     48 H          40.4561   14.5690    7.1782 H       1  UNL11       0.0524
     49 H          42.8280    9.3543    3.8750 H       1  UNL11       0.0482
     50 H          44.6183    9.5451    3.9427 H       1  UNL11       0.0482
     51 H          44.4611   11.7975    3.3617 H       1  UNL11       0.0778
     52 H          43.6122   12.4787    5.1038 H       1  UNL11       0.2115
     53 H          43.4692   13.4089    2.0843 H       1  UNL11       0.0466
     54 H          41.4418   12.4478    0.1915 H       1  UNL11       0.0311
     55 H          43.9675   14.0571   -0.2744 H       1  UNL11       0.0233
     56 H          42.3648   14.7309   -0.1005 H       1  UNL11       0.0233
     57 H          42.7471   13.7311   -1.4816 H       1  UNL11       0.0233
     58 H          44.3440   11.6416   -0.0398 H       1  UNL11       0.0233
     59 H          43.1117   11.3358   -1.2401 H       1  UNL11       0.0233
     60 H          43.0207   10.5598    0.3228 H       1  UNL11       0.0233
     61 H          40.5183   13.0540    2.1359 H       1  UNL11       0.0311
     62 H          42.1626   14.1593    4.3976 H       1  UNL11       0.0233
     63 H          41.3572   12.6087    4.3864 H       1  UNL11       0.0233
     64 H          40.4177   14.0815    4.3498 H       1  UNL11       0.0233
     65 H          42.1097   15.6057    2.3277 H       1  UNL11       0.0233
     66 H          40.3661   15.4930    2.3395 H       1  UNL11       0.0233
     67 H          41.2611   15.0424    0.9080 H       1  UNL11       0.0233
     68 H          46.2009    8.5151    5.6984 H       1  UNL11       0.2415
     69 H          45.2574    9.2187    8.0081 H       1  UNL11       0.2415
     70 H          42.5963    7.0943    5.2704 H       1  UNL11       0.0529
     71 H          41.4257    8.3771    6.0433 H       1  UNL11       0.0283
     72 H          41.8690    7.7767    7.7063 H       1  UNL11       0.0283
     73 H          40.3641    6.5263    7.6432 H       1  UNL11       0.0268
     74 H          40.0554    6.9934    5.9006 H       1  UNL11       0.0268
     75 H          40.2184    5.5804    5.5040 H       1  UNL11       0.0298
     76 H          40.2207    3.5076    6.9770 H       1  UNL11       0.0232
     77 H          39.8189    3.7976    5.3014 H       1  UNL11       0.0232
     78 H          39.0056    4.6928    6.5624 H       1  UNL11       0.0232
     79 H          42.6144    4.1566    6.2648 H       1  UNL11       0.0268
     80 H          42.0870    4.8467    4.6526 H       1  UNL11       0.0268
     81 H          44.0911    5.5263    6.2799 H       1  UNL11       0.0283
     82 H          43.4737    6.1331    4.6782 H       1  UNL11       0.0283
@<TRIPOS>BOND
     1    11    12    0
     2    23    24    0
     3    26    32    0
     4     6     7    0
     5    29    30    0
     6     9    10    0
     7    16    17    0
     8    31    32    0
     9    16    20    0
    10     2     3    0
    11    17    18    0
    12     7     8    0
    13    29    31    0
    14    13    14    0
    15    26    27    0
    16     4     5    0
    17    11    23    0
    18    28    29    0
    19    17    19    0
    20    20    22    0
    21    13    15    0
    22    23    25    0
    23     5     6    0
    24     3     4    0
    25    15    16    0
    26    12    13    0
    27    20    21    0
    28     1     2    0
    29     3     8    0
    30    23    26    0
    31     6    11    0
    32    27    28    0
    33    15    33    0
    34     8     9    0
    35     1    34    1
    36     1    35    1
    37     1    36    1
    38     3    37    1
    39     4    38    1
    40     4    39    1
    41     5    40    1
    42     5    41    1
    43     6    42    1
    44     7    43    1
    45     7    44    1
    46     8    45    1
    47    10    46    1
    48    10    47    1
    49    10    48    1
    50    12    49    1
    51    12    50    1
    52    13    51    1
    53    14    52    1
    54    16    53    1
    55    17    54    1
    56    18    55    1
    57    18    56    1
    58    18    57    1
    59    19    58    1
    60    19    59    1
    61    19    60    1
    62    20    61    1
    63    21    62    1
    64    21    63    1
    65    21    64    1
    66    22    65    1
    67    22    66    1
    68    22    67    1
    69    24    68    1
    70    25    69    1
    71    26    70    1
    72    27    71    1
    73    27    72    1
    74    28    73    1
    75    28    74    1
    76    29    75    1
    77    30    76    1
    78    30    77    1
    79    30    78    1
    80    31    79    1
    81    31    80    1
    82    32    81    1
    83    32    82    1
