@<TRIPOS>MOLECULE
    MOL
   68    72     0     0     0
SMALL
USER_CHARGES


@<TRIPOS>ATOM
      1 C          41.7010   11.6480    5.3160 C          1 UNL      0.000000
      2 H          40.6790   11.9870    5.4410 H          1 UNL      0.000000
      3 C          41.6400   10.3320    4.4510 C          1 UNL      0.000000
      4 H          41.7380    9.5170    5.1750 H          1 UNL      0.000000
      5 C          42.8340   10.1200    3.4850 C          1 UNL      0.000000
      6 H          43.7800   10.4620    3.9000 H          1 UNL      0.000000
      7 H          42.9650    9.0380    3.3590 H          1 UNL      0.000000
      8 C          42.6630   10.7330    2.1030 C          1 UNL      0.000000
      9 H          43.5420   10.4950    1.4900 H          1 UNL      0.000000
     10 H          42.6030   11.8260    2.1690 H          1 UNL      0.000000
     11 C          41.4200   10.1740    1.4380 C          1 UNL      0.000000
     12 H          41.4960    9.0810    1.3600 H          1 UNL      0.000000
     13 H          41.3290   10.5600    0.4180 H          1 UNL      0.000000
     14 C          40.1950   10.5480    2.2550 C          1 UNL      0.000000
     15 H          39.3070   10.1040    1.7920 H          1 UNL      0.000000
     16 H          40.0520   11.6310    2.2110 H          1 UNL      0.000000
     17 C          40.2930   10.0800    3.7100 C          1 UNL      0.000000
     18 H          40.1340    8.9950    3.7020 H          1 UNL      0.000000
     19 H          39.4380   10.4880    4.2560 H          1 UNL      0.000000
     20 C          42.6280   10.2240    7.2590 C          1 UNL      0.000000
     21 N          42.9900   10.4210    8.5170 N          1 UNL      0.000000
     22 C          42.9190   11.7590    8.7520 C          1 UNL      0.000000
     23 C          43.2080   12.4560    9.9380 C          1 UNL      0.000000
     24 H          43.5300   11.9150   10.8200 H          1 UNL      0.000000
     25 C          43.0800   13.8460    9.9520 C          1 UNL      0.000000
     26 H          43.3100   14.3990   10.8610 H          1 UNL      0.000000
     27 C          42.6630   14.5240    8.8100 C          1 UNL      0.000000
     28 H          42.5760   15.6090    8.8360 H          1 UNL      0.000000
     29 C          42.3470   13.8360    7.6280 C          1 UNL      0.000000
     30 H          42.0080   14.3950    6.7660 H          1 UNL      0.000000
     31 C          42.4830   12.4390    7.6200 C          1 UNL      0.000000
     32 N          42.2530   11.4390    6.6730 N          1 UNL      0.000000
     33 C          42.5290    8.8680    6.6890 C          1 UNL      0.000000
     34 C          43.6970    8.2320    6.2420 C          1 UNL      0.000000
     35 H          44.6340    8.7850    6.2060 H          1 UNL      0.000000
     36 C          43.6940    6.8780    5.8890 C          1 UNL      0.000000
     37 H          44.6310    6.4040    5.6010 H          1 UNL      0.000000
     38 C          42.5170    6.1330    5.9730 C          1 UNL      0.000000
     39 C          41.3210    6.7920    6.2690 C          1 UNL      0.000000
     40 H          40.3860    6.2490    6.3200 H          1 UNL      0.000000
     41 C          41.3350    8.1560    6.5760 C          1 UNL      0.000000
     42 H          40.3740    8.6250    6.7580 H          1 UNL      0.000000
     43 C          42.5240    4.6280    5.8540 C          1 UNL      0.000000
     44 H          43.4770    4.2460    6.2380 H          1 UNL      0.000000
     45 H          41.7170    4.1850    6.4470 H          1 UNL      0.000000
     46 O          42.3650    4.1860    4.5140 O          1 UNL      0.000000
     47 H          41.4080    4.1980    4.3280 H          1 UNL      0.000000
     48 C          42.3190   12.8570    4.5530 C          1 UNL      0.000000
     49 N          41.6390   13.4130    3.5010 N          1 UNL      0.000000
     50 H          40.9600   12.8420    3.0140 H          1 UNL      0.000000
     51 O          43.4120   13.3230    4.8860 O          1 UNL      0.000000
     52 C          42.0860   14.6400    2.8210 C          1 UNL      0.000000
     53 H          41.9660   15.4760    3.5220 H          1 UNL      0.000000
     54 C          41.2760   14.9340    1.5440 C          1 UNL      0.000000
     55 H          40.2170   15.1000    1.7700 H          1 UNL      0.000000
     56 H          41.6400   15.8650    1.0890 H          1 UNL      0.000000
     57 C          41.4090   13.8010    0.5290 C          1 UNL      0.000000
     58 H          40.8790   14.0670   -0.3950 H          1 UNL      0.000000
     59 H          40.9120   12.9070    0.9200 H          1 UNL      0.000000
     60 C          42.8690   13.4810    0.2060 C          1 UNL      0.000000
     61 H          43.2720   14.2780   -0.4300 H          1 UNL      0.000000
     62 H          42.9160   12.5550   -0.3780 H          1 UNL      0.000000
     63 C          43.7560   13.3460    1.4440 C          1 UNL      0.000000
     64 H          44.8060   13.2880    1.1440 H          1 UNL      0.000000
     65 H          43.5320   12.4000    1.9470 H          1 UNL      0.000000
     66 C          43.5620   14.5040    2.4260 C          1 UNL      0.000000
     67 H          43.9090   15.4360    1.9620 H          1 UNL      0.000000
     68 H          44.1790   14.3410    3.3170 H          1 UNL      0.000000
@<TRIPOS>BOND
     1    5    8 un
     2   66   68 un
     3   11   12 un
     4   23   24 un
     5    1   48 un
     6   43   44 un
     7   29   30 un
     8    1    3 un
     9   63   65 un
    10   25   27 un
    11   27   29 un
    12   41   42 un
    13   31   32 un
    14   60   61 un
    15   49   52 un
    16   33   41 un
    17   36   38 un
    18   17   18 un
    19   33   34 un
    20   63   66 un
    21   66   67 un
    22   38   43 un
    23   29   31 un
    24   39   41 un
    25   21   22 un
    26   11   13 un
    27   14   17 un
    28   43   45 un
    29   57   58 un
    30    8   11 un
    31   60   63 un
    32   20   33 un
    33   36   37 un
    34   17   19 un
    35   48   49 un
    36   52   54 un
    37    3   17 un
    38   34   36 un
    39   23   25 un
    40    5    6 un
    41   38   39 un
    42   11   14 un
    43   14   16 un
    44   43   46 un
    45   54   56 un
    46   57   59 un
    47   22   31 un
    48    3    4 un
    49   63   64 un
    50   52   66 un
    51   20   21 un
    52   52   53 un
    53    8   10 un
    54    1    2 un
    55   20   32 un
    56   34   35 un
    57   49   50 un
    58   27   28 un
    59    5    7 un
    60   39   40 un
    61   60   62 un
    62   14   15 un
    63   22   23 un
    64   46   47 un
    65   54   55 un
    66   57   60 un
    67   25   26 un
    68    1   32 un
    69   48   51 un
    70    8    9 un
    71    3    5 un
    72   54   57 un

