@<TRIPOS>MOLECULE
    MOL
   38    43     0     0     0
SMALL
USER_CHARGES


@<TRIPOS>ATOM
      1 O          41.6828    9.6110    7.2171 O.2        1 UNL1    -0.273100
      2 C          42.2788    9.6067    6.1455 C.2        1 UNL1     0.243100
      3 N          43.2309    8.6393    5.8693 N.am       1 UNL1    -0.304400
      4 C          43.4234    7.4888    6.7513 C.3        1 UNL1     0.071600
      5 C          42.3124    6.4509    6.5456 C.3        1 UNL1     0.019600
      6 C          42.4401    5.7125    5.2133 C.3        1 UNL1     0.001700
      7 C          43.8224    5.0882    5.0447 C.3        1 UNL1     0.000100
      8 C          44.9368    6.1123    5.2294 C.3        1 UNL1     0.001700
      9 C          44.8080    6.8662    6.5519 C.3        1 UNL1     0.019600
     10 C          42.0914   10.6763    5.0469 C.3        1 UNL1     0.162800
     11 C          40.8673   10.4965    4.0477 C.3        1 UNL1     0.029700
     12 C          40.2620   11.7162    3.3095 C.3        1 UNL1     0.002400
     13 C          40.7286   11.9674    1.8752 C.3        1 UNL1     0.000100
     14 C          40.8206   10.7073    1.0329 C.3        1 UNL1     0.000000
     15 C          41.5830    9.6066    1.7588 C.3        1 UNL1     0.000100
     16 C          40.9376    9.2864    3.1007 C.3        1 UNL1     0.002400
     17 N          42.5751   12.0247    5.4220 N.ar       1 UNL1    -0.304800
     18 C          42.6497   12.4036    6.7725 C.ar       1 UNL1     0.079200
     19 C          42.5121   11.7047    7.9865 C.ar       1 UNL1     0.018800
     20 C          42.5415   12.4432    9.1760 C.ar       1 UNL1     0.001600
     21 C          42.7169   13.8243    9.1632 C.ar       1 UNL1     0.001600
     22 C          42.8892   14.5020    7.9530 C.ar       1 UNL1     0.020600
     23 C          42.8540   13.7742    6.7528 C.ar       1 UNL1     0.098700
     24 N          42.9841   14.2194    5.4777 N.ar       1 UNL1    -0.226800
     25 C          42.7981   13.1858    4.6649 C.ar       1 UNL1     0.144100
     26 C          42.8632   13.3910    3.1972 C.ar       1 UNL1     0.034200
     27 C          43.6315   12.5208    2.3971 C.ar       1 UNL1     0.003100
     28 C          43.6523   12.6209    0.9890 C.ar       1 UNL1     0.003200
     29 C          42.8934   13.6025    0.3485 C.ar       1 UNL1     0.037100
     30 C          42.1956   14.5083    1.1418 C.ar       1 UNL1     0.003200
     31 C          42.1885   14.3943    2.5304 C.ar       1 UNL1     0.003100
     32 C          42.7230   13.7145   -1.0935 C.ar       1 UNL1     0.180600
     33 N          43.2108   12.8720   -2.0507 N.ar       1 UNL1    -0.238800
     34 N          42.8581   13.2971   -3.2730 N.ar       1 UNL1    -0.046400
     35 N          42.1653   14.4089   -3.0691 N.ar       1 UNL1    -0.022900
     36 N          42.0811   14.6822   -1.7275 N.ar       1 UNL1    -0.108400
     37 H          43.7420    8.6653    4.9973 H          1 UNL1     0.149400
     38 H          43.7810   12.0417   -1.9552 H          1 UNL1     0.192300
@<TRIPOS>BOND
     1   11   12 un
     2   23   24 un
     3    6    7 un
     4   29   30 un
     5   11   16 un
     6   19   20 un
     7   33   38 un
     8   35   36 un
     9   17   25 un
    10   32   33 un
    11    2    3 un
    12   17   18 un
    13   33   34 un
    14    7    8 un
    15   26   31 un
    16   13   14 un
    17   21   22 un
    18   26   27 un
    19    4    5 un
    20   32   36 un
    21   28   29 un
    22   29   32 un
    23    5    6 un
    24   30   31 un
    25   10   11 un
    26   10   17 un
    27    3    4 un
    28    2   10 un
    29   15   16 un
    30   18   23 un
    31   12   13 un
    32    3   37 un
    33   20   21 un
    34   24   25 un
    35    1    2 un
    36   18   19 un
    37   34   35 un
    38   27   28 un
    39   14   15 un
    40   22   23 un
    41    4    9 un
    42   25   26 un
    43    8    9 un

