@<TRIPOS>MOLECULE
    MOL
   35    39     0     0     0
SMALL
USER_CHARGES


@<TRIPOS>ATOM
      1 O          44.0662   12.5971   -1.1599 O.3        1 UNL1    -0.477100
      2 C          42.8950   13.2658   -1.1454 C.2        1 UNL1     0.338000
      3 O          42.1500   13.3247   -2.1062 O.2        1 UNL1    -0.245100
      4 C          42.5814   13.9177    0.1527 C.ar       1 UNL1     0.075400
      5 C          43.6372   14.1393    1.0436 C.ar       1 UNL1     0.006200
      6 C          43.3793   14.5743    2.3442 C.ar       1 UNL1    -0.002400
      7 C          42.0604   14.7794    2.7740 C.ar       1 UNL1    -0.002000
      8 C          41.7661   14.9219    4.2475 C.3        1 UNL1     0.124700
      9 N          41.9619   13.7383    5.0444 N.am       1 UNL1    -0.254400
     10 C          42.3934   12.5307    4.4917 C.2        1 UNL1     0.232600
     11 O          42.4415   12.2451    3.3038 O.2        1 UNL1    -0.274200
     12 C          42.8362   11.6077    5.6527 C.3        1 UNL1     0.092000
     13 C          44.2816   11.1427    5.3905 C.3        1 UNL1     0.031900
     14 C          44.3638    9.9221    4.4750 C.3        1 UNL1     0.096600
     15 N          43.4078    8.8699    4.8872 N.3        1 UNL1    -0.155000
     16 C          42.0132    9.3552    4.8131 C.3        1 UNL1     0.096600
     17 C          41.7996   10.4810    5.8125 C.3        1 UNL1     0.031900
     18 S          43.7834    7.9280    6.2573 S.O2       1 UNL1     0.069000
     19 O          45.0751    7.3056    6.0516 O.2        1 UNL1    -0.152300
     20 O          43.5203    8.7134    7.4424 O.2        1 UNL1    -0.152300
     21 C          42.6403    6.5657    6.3322 C.ar       1 UNL1     0.151600
     22 C          42.7937    5.2124    6.0946 C.ar       1 UNL1     0.027100
     23 C          41.5947    4.4823    6.3336 C.ar       1 UNL1     0.008900
     24 C          40.5646    5.3048    6.7334 C.ar       1 UNL1     0.036800
     25 S          41.0380    6.9480    6.7912 S.2        1 UNL1    -0.066800
     26 C          42.7367   12.5541    6.8337 C.ar       1 UNL1    -0.000300
     27 C          43.1352   12.3652    8.1515 C.ar       1 UNL1     0.004100
     28 C          42.9210   13.4065    9.0561 C.ar       1 UNL1     0.034300
     29 BR         43.4989   13.2202   10.8472 Br         1 UNL1    -0.049000
     30 C          42.2944   14.5975    8.6563 C.ar       1 UNL1     0.008000
     31 C          41.9078   14.7815    7.3259 C.ar       1 UNL1     0.015100
     32 C          42.1605   13.7577    6.4286 C.ar       1 UNL1     0.050600
     33 C          41.0146   14.6460    1.8481 C.ar       1 UNL1    -0.002400
     34 C          41.2691   14.2006    0.5481 C.ar       1 UNL1     0.006200
     35 H          44.2836   12.1672   -2.0058 H          1 UNL1     0.295400
@<TRIPOS>BOND
     1   12   17 un
     2   15   18 un
     3    2    4 un
     4   23   24 un
     5   26   32 un
     6    6    7 un
     7   18   21 un
     8    9   10 un
     9   16   17 un
    10   31   32 un
    11   28   30 un
    12    2    3 un
    13   33   34 un
    14    7    8 un
    15   13   14 un
    16   21   22 un
    17    7   33 un
    18   26   27 un
    19   10   12 un
    20    4    5 un
    21   28   29 un
    22   18   20 un
    23    5    6 un
    24   30   31 un
    25    4   34 un
    26   10   11 un
    27   15   16 un
    28   12   13 un
    29    1   35 un
    30   24   25 un
    31    1    2 un
    32   18   19 un
    33   27   28 un
    34   21   25 un
    35   14   15 un
    36   22   23 un
    37    9   32 un
    38   12   26 un
    39    8    9 un

