@<TRIPOS>MOLECULE
    MOL
   55    59     0     0     0
SMALL
USER_CHARGES


@<TRIPOS>ATOM
      1 N          32.1590   26.4890   -0.1920 N          1 UNL      0.000000
      2 C          31.5760   26.8150    1.0370 C          1 UNL      0.000000
      3 C          32.1920   27.2340    2.2050 C          1 UNL      0.000000
      4 H          33.2550   27.4380    2.2510 H          1 UNL      0.000000
      5 C          31.3970   27.3960    3.3420 C          1 UNL      0.000000
      6 H          31.8600   27.7150    4.2730 H          1 UNL      0.000000
      7 C          30.0180   27.1370    3.2900 C          1 UNL      0.000000
      8 BR         28.9860   27.2930    4.8660 Br         1 UNL      0.000000
      9 C          29.4020   26.7540    2.0970 C          1 UNL      0.000000
     10 H          28.3320   26.5640    2.0550 H          1 UNL      0.000000
     11 C          30.1990   26.6060    0.9690 C          1 UNL      0.000000
     12 C          29.8070   26.2120   -0.4420 C          1 UNL      0.000000
     13 C          29.0640   27.3830   -1.1100 C          1 UNL      0.000000
     14 H          28.2940   27.7790   -0.4370 H          1 UNL      0.000000
     15 H          29.7490   28.2190   -1.3030 H          1 UNL      0.000000
     16 C          28.4100   26.9770   -2.4230 C          1 UNL      0.000000
     17 H          29.1680   26.7420   -3.1800 H          1 UNL      0.000000
     18 H          27.8290   27.8060   -2.8390 H          1 UNL      0.000000
     19 N          27.5500   25.7930   -2.2140 N          1 UNL      0.000000
     20 C          28.3510   24.6130   -1.8150 C          1 UNL      0.000000
     21 H          29.0720   24.3990   -2.6120 H          1 UNL      0.000000
     22 H          27.7150   23.7230   -1.7490 H          1 UNL      0.000000
     23 C          29.0820   24.8540   -0.4950 C          1 UNL      0.000000
     24 H          29.7930   24.0320   -0.3360 H          1 UNL      0.000000
     25 H          28.3660   24.7650    0.3290 H          1 UNL      0.000000
     26 C          31.1960   26.0600   -1.1070 C          1 UNL      0.000000
     27 O          31.3980   25.6170   -2.2290 O          1 UNL      0.000000
     28 C          33.5610   26.2070   -0.3630 C          1 UNL      0.000000
     29 H          33.9850   26.9640   -1.0380 H          1 UNL      0.000000
     30 H          33.6800   25.2560   -0.8950 H          1 UNL      0.000000
     31 C          35.5510   26.6760    3.4140 C          1 UNL      0.000000
     32 C          34.5910   25.6700    3.2570 C          1 UNL      0.000000
     33 H          34.1980   25.1190    4.1080 H          1 UNL      0.000000
     34 C          34.0290   25.4340    1.9990 C          1 UNL      0.000000
     35 H          33.2360   24.6930    1.9060 H          1 UNL      0.000000
     36 C          34.3940   26.2200    0.8960 C          1 UNL      0.000000
     37 C          35.4160   27.1680    1.0450 C          1 UNL      0.000000
     38 H          35.7250   27.7890    0.2060 H          1 UNL      0.000000
     39 C          35.9860   27.3990    2.2980 C          1 UNL      0.000000
     40 H          36.7270   28.1890    2.4130 H          1 UNL      0.000000
     41 C          36.0440   27.1000    4.7490 C          1 UNL      0.000000
     42 O          37.2190   27.3210    4.9770 O          1 UNL      0.000000
     43 O          35.0790   27.2070    5.6870 O          1 UNL      0.000000
     44 H          35.3860   27.5030    6.5610 H          1 UNL      0.000000
     45 S          26.0820   26.0870   -1.4000 S          1 UNL      0.000000
     46 O          26.2800   27.1790   -0.4740 O          1 UNL      0.000000
     47 O          25.5420   24.8200   -0.9500 O          1 UNL      0.000000
     48 C          24.8940   26.6820   -2.5830 C          1 UNL      0.000000
     49 S          23.3060   26.9340   -1.9980 S          1 UNL      0.000000
     50 C          22.7400   27.3850   -3.5480 C          1 UNL      0.000000
     51 H          21.6970   27.6290   -3.6930 H          1 UNL      0.000000
     52 C          23.7480   27.3840   -4.4880 C          1 UNL      0.000000
     53 H          23.5940   27.6450   -5.5280 H          1 UNL      0.000000
     54 C          24.9950   26.9840   -3.9280 C          1 UNL      0.000000
     55 H          25.9230   26.8940   -4.4820 H          1 UNL      0.000000
@<TRIPOS>BOND
     1    1   28 un
     2   50   52 un
     3   11   12 un
     4   19   45 un
     5   23   24 un
     6   43   44 un
     7   37   38 un
     8    9   10 un
     9   41   42 un
    10   19   20 un
    11   31   32 un
    12   20   23 un
    13   32   33 un
    14   28   30 un
    15    2    3 un
    16   50   51 un
    17    7    8 un
    18   37   39 un
    19   52   53 un
    20   13   14 un
    21   45   46 un
    22   48   54 un
    23    9   11 un
    24   12   23 un
    25   41   43 un
    26   26   27 un
    27   16   19 un
    28    2   11 un
    29   28   29 un
    30   36   37 un
    31   48   49 un
    32   20   22 un
    33   31   39 un
    34   52   54 un
    35   34   36 un
    36   13   15 un
    37   23   25 un
    38   45   47 un
    39    1   26 un
    40    5    6 un
    41    3    4 un
    42   12   13 un
    43   20   21 un
    44   28   36 un
    45   16   18 un
    46    1    2 un
    47   34   35 un
    48   13   16 un
    49   45   48 un
    50   39   40 un
    51    5    7 un
    52    7    9 un
    53   49   50 un
    54   54   55 un
    55   31   41 un
    56   12   26 un
    57   16   17 un
    58    3    5 un
    59   32   34 un

