@<TRIPOS>MOLECULE
    MOL
   28    31     0     0     0
SMALL
USER_CHARGES


@<TRIPOS>ATOM
      1 C          41.0157   10.2137    7.2556 C.3        1 UNL1     0.032300
      2 C          42.4148   10.7087    7.4922 C.ar       1 UNL1    -0.008600
      3 C          43.2767    9.9936    8.3475 C.ar       1 UNL1    -0.003100
      4 C          44.4295   10.5798    8.8567 C.ar       1 UNL1    -0.000600
      5 C          44.6037   11.9426    8.6837 C.ar       1 UNL1    -0.003100
      6 C          43.7450   12.6509    7.8314 C.ar       1 UNL1    -0.008600
      7 C          43.6811   14.1587    7.9791 C.3        1 UNL1     0.032300
      8 C          42.8253   11.9461    7.0131 C.ar       1 UNL1     0.044800
      9 N          42.4421   12.5083    5.7796 N.pl3      1 UNL1    -0.258900
     10 C          42.4091   12.1395    4.4564 C.ar       1 UNL1     0.309300
     11 C          42.6736   10.8301    4.0109 C.ar       1 UNL1     0.171000
     12 N          42.7219   10.7529    2.6555 N.ar       1 UNL1    -0.177200
     13 C          42.5342   11.9753    2.2288 C.ar       1 UNL1     0.321400
     14 C          42.6725   12.4391    0.8939 C.ar       1 UNL1     0.091900
     15 C          42.3508   13.6998    0.5866 C.ar       1 UNL1     0.013700
     16 C          41.7823   14.5665    1.5870 C.ar       1 UNL1     0.065200
     17 C          41.6594   14.1687    2.8777 C.ar       1 UNL1     0.211200
     18 C          40.9820   15.1441    3.7864 C.3        1 UNL1     0.108400
     19 N          42.1468   12.8688    3.2530 N.ar       1 UNL1    -0.123200
     20 C          43.0387    9.6609    4.8010 C.ar       1 UNL1     0.080000
     21 C          42.0720    8.7008    5.1020 C.ar       1 UNL1     0.144000
     22 F          40.8051    8.8180    4.6709 F          1 UNL1    -0.204000
     23 C          42.3722    7.5465    5.8444 C.ar       1 UNL1     0.029800
     24 C          43.6717    7.3414    6.3111 C.ar       1 UNL1     0.004600
     25 C          44.6554    8.2874    6.0332 C.ar       1 UNL1     0.029800
     26 C          44.3318    9.4334    5.2967 C.ar       1 UNL1     0.144000
     27 F          45.3138   10.3199    5.0731 F          1 UNL1    -0.204000
     28 H          42.1859   13.4822    5.9414 H          1 UNL1     0.157700
@<TRIPOS>BOND
     1   11   12 un
     2   23   24 un
     3    6    7 un
     4    9   10 un
     5   16   17 un
     6   10   19 un
     7    2    3 un
     8   17   18 un
     9   13   14 un
    10   21   22 un
    11   26   27 un
    12   20   26 un
    13    4    5 un
    14   17   19 un
    15   21   23 un
    16    5    6 un
    17   11   20 un
    18   10   11 un
    19   13   19 un
    20    3    4 un
    21   15   16 un
    22   12   13 un
    23   20   21 un
    24   24   25 un
    25    1    2 un
    26   14   15 un
    27    6    8 un
    28   25   26 un
    29    2    8 un
    30    9   28 un
    31    8    9 un

