@<TRIPOS>MOLECULE
    MOL
   37    42     0     0     0
SMALL
USER_CHARGES


@<TRIPOS>ATOM
      1 O          44.1805   12.4736    3.4962 O.2        1 UNL1    -0.273100
      2 C          43.0776   12.2715    3.9854 C.2        1 UNL1     0.243100
      3 N          42.0613   13.2268    3.9574 N.am       1 UNL1    -0.304400
      4 C          42.2090   14.5726    3.3920 C.3        1 UNL1     0.071600
      5 C          43.5765   14.7907    2.7240 C.3        1 UNL1     0.019600
      6 C          43.7267   14.1290    1.3495 C.3        1 UNL1     0.001700
      7 C          42.5550   14.4087    0.4156 C.3        1 UNL1     0.000100
      8 C          41.2194   14.1043    1.0833 C.3        1 UNL1     0.001700
      9 C          41.0738   14.8712    2.3978 C.3        1 UNL1     0.019600
     10 C          42.6699   10.9570    4.6866 C.3        1 UNL1     0.162800
     11 C          41.3653   10.1801    4.2936 C.3        1 UNL1     0.029700
     12 C          40.0787   10.9670    4.0268 C.3        1 UNL1     0.002400
     13 C          40.0074   11.5371    2.6208 C.3        1 UNL1     0.000100
     14 C          40.1524   10.4485    1.5667 C.3        1 UNL1     0.000000
     15 C          41.4179    9.6212    1.7687 C.3        1 UNL1     0.000100
     16 C          41.5644    9.1067    3.2002 C.3        1 UNL1     0.002400
     17 N          42.9832   11.0006    6.1246 N.ar       1 UNL1    -0.304400
     18 C          43.0055   12.1369    6.9225 C.ar       1 UNL1     0.079200
     19 C          42.8414   13.5098    6.6826 C.ar       1 UNL1     0.018800
     20 C          42.9076   14.3855    7.7743 C.ar       1 UNL1     0.001600
     21 C          43.1482   13.9150    9.0621 C.ar       1 UNL1     0.001600
     22 C          43.3257   12.5478    9.2900 C.ar       1 UNL1     0.020600
     23 C          43.2509   11.6585    8.2062 C.ar       1 UNL1     0.098700
     24 N          43.4094   10.3027    8.2027 N.ar       1 UNL1    -0.226300
     25 C          43.3267    9.9258    6.9426 C.ar       1 UNL1     0.150100
     26 C          43.5742    8.5546    6.5751 C.ar       1 UNL1     0.063600
     27 C          44.7559    7.8528    6.7381 C.ar       1 UNL1     0.010000
     28 C          44.6405    6.4818    6.3387 C.ar       1 UNL1     0.007100
     29 C          43.3766    6.1858    5.8697 C.ar       1 UNL1     0.029600
     30 S          42.4751    7.6244    5.6631 S.2        1 UNL1    -0.083900
     31 C          42.7612    4.9213    5.4483 C.ar       1 UNL1     0.006000
     32 C          42.3013    3.9994    6.3931 C.ar       1 UNL1     0.000500
     33 C          41.8196    2.7526    5.9844 C.ar       1 UNL1     0.000000
     34 C          41.7860    2.4182    4.6299 C.ar       1 UNL1     0.000000
     35 C          42.1987    3.3416    3.6753 C.ar       1 UNL1     0.000000
     36 C          42.6705    4.5900    4.0827 C.ar       1 UNL1     0.000500
     37 H          41.1305   12.9525    4.2400 H          1 UNL1     0.149400
@<TRIPOS>BOND
     1   11   12 un
     2   23   24 un
     3    6    7 un
     4   29   30 un
     5   11   16 un
     6   19   20 un
     7   31   32 un
     8   35   36 un
     9   17   25 un
    10   32   33 un
    11    2    3 un
    12   17   18 un
    13   33   34 un
    14    7    8 un
    15   29   31 un
    16   13   14 un
    17   21   22 un
    18   26   27 un
    19    4    5 un
    20   28   29 un
    21   26   30 un
    22    5    6 un
    23   10   11 un
    24   10   17 un
    25    3    4 un
    26    2   10 un
    27   15   16 un
    28   18   23 un
    29   12   13 un
    30    3   37 un
    31   20   21 un
    32   24   25 un
    33    1    2 un
    34   18   19 un
    35   34   35 un
    36   27   28 un
    37   14   15 un
    38   22   23 un
    39   31   36 un
    40    4    9 un
    41   25   26 un
    42    8    9 un

