@<TRIPOS>MOLECULE
    MOL
   56    58     0     0     0
SMALL
USER_CHARGES


@<TRIPOS>ATOM
      1 C          43.1330   10.0260    6.8370 C          1 UNL      0.000000
      2 N          43.0010   11.1800    6.0070 N          1 UNL      0.000000
      3 C          42.3590   11.0620    4.7720 C          1 UNL      0.000000
      4 N          41.9080   12.2160    4.1840 N          1 UNL      0.000000
      5 H          41.5570   12.9050    4.8270 H          1 UNL      0.000000
      6 O          42.2260    9.9980    4.1690 O          1 UNL      0.000000
      7 O          43.7550   10.0160    7.9030 O          1 UNL      0.000000
      8 C          41.2570   12.2180    2.8660 C          1 UNL      0.000000
      9 H          40.3000   11.6910    2.9510 H          1 UNL      0.000000
     10 C          42.0900   11.4790    1.8070 C          1 UNL      0.000000
     11 H          42.3240   10.4610    2.1400 H          1 UNL      0.000000
     12 H          41.4830   11.3760    0.8960 H          1 UNL      0.000000
     13 C          43.3780   12.2110    1.4420 C          1 UNL      0.000000
     14 H          43.8780   11.6840    0.6210 H          1 UNL      0.000000
     15 H          44.0700   12.1910    2.2910 H          1 UNL      0.000000
     16 C          43.1080   13.6550    1.0300 C          1 UNL      0.000000
     17 H          42.5860   13.6630    0.0650 H          1 UNL      0.000000
     18 H          44.0600   14.1750    0.8810 H          1 UNL      0.000000
     19 C          42.2680   14.4080    2.0590 C          1 UNL      0.000000
     20 H          42.0140   15.3990    1.6690 H          1 UNL      0.000000
     21 H          42.8670   14.5750    2.9630 H          1 UNL      0.000000
     22 C          40.9820   13.6590    2.4190 C          1 UNL      0.000000
     23 H          40.3250   13.6400    1.5410 H          1 UNL      0.000000
     24 H          40.4500   14.2030    3.2070 H          1 UNL      0.000000
     25 C          43.5380   12.4940    6.5980 C          1 UNL      0.000000
     26 H          44.2120   12.8910    5.8270 H          1 UNL      0.000000
     27 C          44.3160   12.5110    7.9540 C          1 UNL      0.000000
     28 H          45.2610   11.9690    7.9360 H          1 UNL      0.000000
     29 H          44.6550   13.5440    8.1310 H          1 UNL      0.000000
     30 C          43.4640   12.1080    9.1650 C          1 UNL      0.000000
     31 H          44.0250   12.3260   10.0840 H          1 UNL      0.000000
     32 H          43.2990   11.0270    9.1600 H          1 UNL      0.000000
     33 C          42.1120   12.8190    9.2340 C          1 UNL      0.000000
     34 H          42.2570   13.8190    9.6610 H          1 UNL      0.000000
     35 H          41.4490   12.2790    9.9170 H          1 UNL      0.000000
     36 C          41.4400   12.9700    7.8750 C          1 UNL      0.000000
     37 H          40.5640   13.6200    7.9550 H          1 UNL      0.000000
     38 H          41.0750   11.9920    7.5380 H          1 UNL      0.000000
     39 C          42.4310   13.5480    6.8710 C          1 UNL      0.000000
     40 H          42.8800   14.4630    7.2900 H          1 UNL      0.000000
     41 H          41.9330   13.9160    5.9770 H          1 UNL      0.000000
     42 C          43.1320    7.6730    6.0210 C          1 UNL      0.000000
     43 H          44.1980    7.7760    5.8040 H          1 UNL      0.000000
     44 C          42.4440    8.7300    6.4940 C          1 UNL      0.000000
     45 H          41.4010    8.6580    6.7600 H          1 UNL      0.000000
     46 F          41.2780    2.4000    5.3020 F          1 UNL      0.000000
     47 C          41.6830    3.6670    5.4510 C          1 UNL      0.000000
     48 C          42.4800    4.2590    4.4830 C          1 UNL      0.000000
     49 H          42.7630    3.7000    3.5960 H          1 UNL      0.000000
     50 C          42.9180    5.5770    4.6670 C          1 UNL      0.000000
     51 H          43.5510    6.0170    3.8990 H          1 UNL      0.000000
     52 C          42.5810    6.3080    5.8240 C          1 UNL      0.000000
     53 C          41.7380    5.6940    6.7620 C          1 UNL      0.000000
     54 H          41.4080    6.2260    7.6490 H          1 UNL      0.000000
     55 C          41.2970    4.3790    6.5880 C          1 UNL      0.000000
     56 H          40.6690    3.9000    7.3280 H          1 UNL      0.000000
@<TRIPOS>BOND
     1    8   22 un
     2   50   52 un
     3   55   56 un
     4   25   27 un
     5   27   29 un
     6   16   17 un
     7    1   44 un
     8   19   20 un
     9   47   48 un
    10    4    8 un
    11    3    6 un
    12   36   38 un
    13    2    3 un
    14   33   34 un
    15   48   50 un
    16   50   51 un
    17   39   41 un
    18   13   14 un
    19   25   39 un
    20   27   30 un
    21   30   32 un
    22   53   54 un
    23   10   12 un
    24   42   44 un
    25   16   19 un
    26    4    5 un
    27   36   37 un
    28   19   21 un
    29   33   35 un
    30   48   49 un
    31    2   25 un
    32   13   15 un
    33   53   55 un
    34   30   31 un
    35   22   24 un
    36   10   11 un
    37   42   43 un
    38    3    4 un
    39   19   22 un
    40   33   36 un
    41   44   45 un
    42   52   53 un
    43   16   18 un
    44    1    2 un
    45    8   10 un
    46   13   16 un
    47   47   55 un
    48   27   28 un
    49   39   40 un
    50   22   23 un
    51   46   47 un
    52   30   33 un
    53   25   26 un
    54    1    7 un
    55   36   39 un
    56   42   52 un
    57    8    9 un
    58   10   13 un

