@<TRIPOS>MOLECULE
    MOL
   35    39     0     0     0
SMALL
USER_CHARGES


@<TRIPOS>ATOM
      1 C          42.1258    9.6368    7.1584 C.ar       1 UNL1     0.144100
      2 N          42.4134   10.7728    6.3907 N.ar       1 UNL1    -0.304800
      3 C          42.6600   10.8318    4.9325 C.3        1 UNL1     0.162800
      4 C          41.5172   11.5066    4.1171 C.2        1 UNL1     0.243100
      5 O          40.6122   10.8318    3.6204 O.2        1 UNL1    -0.273100
      6 N          41.5192   12.8666    3.9449 N.am       1 UNL1    -0.304400
      7 C          40.5576   13.5624    3.0743 C.3        1 UNL1     0.071600
      8 C          41.1215   14.9303    2.6711 C.3        1 UNL1     0.019600
      9 C          42.4180   14.7703    1.8749 C.3        1 UNL1     0.001700
     10 C          42.2397   13.8709    0.6515 C.3        1 UNL1     0.000100
     11 C          41.5165   12.5584    0.9546 C.3        1 UNL1     0.001700
     12 C          40.2534   12.7738    1.7863 C.3        1 UNL1     0.019600
     13 C          44.0926   11.3714    4.5577 C.3        1 UNL1     0.029700
     14 C          45.2865   10.5656    5.1507 C.3        1 UNL1     0.002400
     15 C          45.9134    9.4861    4.2630 C.3        1 UNL1     0.000100
     16 C          46.1468    9.9636    2.8408 C.3        1 UNL1     0.000000
     17 C          44.8385   10.4554    2.2498 C.3        1 UNL1     0.000100
     18 C          44.3224   11.6435    3.0498 C.3        1 UNL1     0.002400
     19 C          42.4116   11.8660    7.2597 C.ar       1 UNL1     0.079200
     20 C          42.0531   11.3345    8.4945 C.ar       1 UNL1     0.098700
     21 N          41.8752    9.9888    8.4093 N.ar       1 UNL1    -0.226800
     22 C          41.9069   12.1681    9.6169 C.ar       1 UNL1     0.020600
     23 C          42.1579   13.5349    9.4793 C.ar       1 UNL1     0.001600
     24 C          42.5363   14.0588    8.2460 C.ar       1 UNL1     0.001600
     25 C          42.6608   13.2403    7.1133 C.ar       1 UNL1     0.018800
     26 C          41.9625    8.2458    6.7008 C.ar       1 UNL1     0.034100
     27 C          40.8042    7.4929    6.8942 C.ar       1 UNL1     0.002700
     28 C          40.7819    6.1121    6.6731 C.ar       1 UNL1    -0.001800
     29 C          41.9105    5.4720    6.1561 C.ar       1 UNL1     0.007000
     30 C          43.0082    6.2454    5.7724 C.ar       1 UNL1    -0.001800
     31 C          43.0296    7.6180    6.0413 C.ar       1 UNL1     0.002700
     32 C          41.9565    3.9631    6.1212 C.3        1 UNL1     0.163600
     33 O          41.7426    3.4413    4.8184 O.3        1 UNL1    -0.377200
     34 H          42.0200   13.4332    4.6183 H          1 UNL1     0.149400
     35 H          41.7618    2.4715    4.8997 H          1 UNL1     0.210900
@<TRIPOS>BOND
     1   11   12 un
     2   23   24 un
     3    1   21 un
     4    6    7 un
     5   29   30 un
     6    9   10 un
     7   16   17 un
     8   19   20 un
     9    3   13 un
    10   32   33 un
    11    2    3 un
    12   17   18 un
    13    7    8 un
    14   26   31 un
    15   13   14 un
    16   26   27 un
    17   13   18 un
    18    4    5 un
    19   28   29 un
    20   33   35 un
    21   20   22 un
    22   29   32 un
    23    1   26 un
    24    7   12 un
    25   19   25 un
    26   30   31 un
    27   10   11 un
    28    3    4 un
    29   15   16 un
    30   20   21 un
    31   24   25 un
    32    4    6 un
    33    1    2 un
    34   27   28 un
    35   14   15 un
    36   22   23 un
    37    2   19 un
    38    6   34 un
    39    8    9 un

