@<TRIPOS>MOLECULE
    MOL
   71    76     0     0     0
SMALL
USER_CHARGES


@<TRIPOS>ATOM
      1 C          32.2360   25.6660    0.2900 C          1 UNL      0.000000
      2 H          31.6230   24.7690    0.2730 H          1 UNL      0.000000
      3 C          33.5140   25.0520    0.9600 C          1 UNL      0.000000
      4 H          33.8800   24.3450    0.1950 H          1 UNL      0.000000
      5 C          33.2300   24.1750    2.2000 C          1 UNL      0.000000
      6 H          32.3130   23.5940    2.0660 H          1 UNL      0.000000
      7 H          34.0430   23.4370    2.2820 H          1 UNL      0.000000
      8 C          33.1810   24.9380    3.5230 C          1 UNL      0.000000
      9 H          33.1450   24.2240    4.3550 H          1 UNL      0.000000
     10 H          32.2600   25.5160    3.5910 H          1 UNL      0.000000
     11 C          34.3780   25.8660    3.7120 C          1 UNL      0.000000
     12 H          35.2780   25.2670    3.8990 H          1 UNL      0.000000
     13 H          34.2220   26.4890    4.6000 H          1 UNL      0.000000
     14 C          34.6040   26.7610    2.5020 C          1 UNL      0.000000
     15 H          35.5170   27.3500    2.6480 H          1 UNL      0.000000
     16 H          33.7810   27.4680    2.4260 H          1 UNL      0.000000
     17 C          34.7260   25.9520    1.2230 C          1 UNL      0.000000
     18 H          35.6100   25.3020    1.3240 H          1 UNL      0.000000
     19 H          34.9460   26.5940    0.3670 H          1 UNL      0.000000
     20 N          32.3760   26.0610   -1.1210 N          1 UNL      0.000000
     21 C          31.3810   26.0600   -2.0960 C          1 UNL      0.000000
     22 N          31.8850   26.3430   -3.2810 N          1 UNL      0.000000
     23 C          33.1950   26.6630   -3.0710 C          1 UNL      0.000000
     24 C          34.1500   27.1060   -4.0010 C          1 UNL      0.000000
     25 H          33.8750   27.2280   -5.0420 H          1 UNL      0.000000
     26 C          35.4430   27.4000   -3.5610 C          1 UNL      0.000000
     27 H          36.1890   27.7430   -4.2710 H          1 UNL      0.000000
     28 C          35.7750   27.2600   -2.2160 C          1 UNL      0.000000
     29 H          36.7840   27.4960   -1.8840 H          1 UNL      0.000000
     30 C          34.8290   26.8290   -1.2760 C          1 UNL      0.000000
     31 H          35.1130   26.7610   -0.2350 H          1 UNL      0.000000
     32 C          33.5360   26.5230   -1.7290 C          1 UNL      0.000000
     33 C          29.9720   25.7940   -1.9480 C          1 UNL      0.000000
     34 S          28.7660   26.7430   -2.6890 S          1 UNL      0.000000
     35 C          27.4990   25.9380   -1.8710 C          1 UNL      0.000000
     36 C          27.9660   24.7680   -1.3060 C          1 UNL      0.000000
     37 H          27.3320   24.0230   -0.8420 H          1 UNL      0.000000
     38 C          29.3960   24.6830   -1.3600 C          1 UNL      0.000000
     39 H          29.9770   23.8620   -0.9530 H          1 UNL      0.000000
     40 C          26.1490   26.5080   -1.9610 C          1 UNL      0.000000
     41 C          25.6160   26.8890   -3.2070 C          1 UNL      0.000000
     42 H          26.2190   26.8390   -4.1100 H          1 UNL      0.000000
     43 C          24.2920   27.3200   -3.3220 C          1 UNL      0.000000
     44 H          23.8850   27.5740   -4.2970 H          1 UNL      0.000000
     45 C          23.4950   27.3990   -2.1850 C          1 UNL      0.000000
     46 H          22.4570   27.7080   -2.2720 H          1 UNL      0.000000
     47 C          24.0260   27.0760   -0.9360 C          1 UNL      0.000000
     48 H          23.4020   27.1450   -0.0510 H          1 UNL      0.000000
     49 C          25.3490   26.6360   -0.8220 C          1 UNL      0.000000
     50 H          25.7310   26.3610    0.1570 H          1 UNL      0.000000
     51 O          30.5190   27.4000    0.5100 O          1 UNL      0.000000
     52 C          31.3040   26.6340    1.0530 C          1 UNL      0.000000
     53 N          31.4330   26.5560    2.4400 N          1 UNL      0.000000
     54 H          31.9820   25.8040    2.8330 H          1 UNL      0.000000
     55 C          30.6950   27.4000    3.3860 C          1 UNL      0.000000
     56 H          30.8120   28.4370    3.0480 H          1 UNL      0.000000
     57 C          31.2980   27.2880    4.7970 C          1 UNL      0.000000
     58 H          32.3820   27.4390    4.7620 H          1 UNL      0.000000
     59 H          30.8840   28.0880    5.4240 H          1 UNL      0.000000
     60 C          30.9900   25.9490    5.4680 C          1 UNL      0.000000
     61 H          31.4210   25.9320    6.4760 H          1 UNL      0.000000
     62 H          31.4610   25.1290    4.9160 H          1 UNL      0.000000
     63 C          29.4870   25.7090    5.5510 C          1 UNL      0.000000
     64 H          29.0400   26.4460    6.2300 H          1 UNL      0.000000
     65 H          29.2920   24.7210    5.9870 H          1 UNL      0.000000
     66 C          28.8280   25.8030    4.1810 C          1 UNL      0.000000
     67 H          27.7390   25.7560    4.3080 H          1 UNL      0.000000
     68 H          29.1110   24.9300    3.5800 H          1 UNL      0.000000
     69 C          29.1910   27.0820    3.4200 C          1 UNL      0.000000
     70 H          28.6780   27.9190    3.9130 H          1 UNL      0.000000
     71 H          28.7890   27.0290    2.4060 H          1 UNL      0.000000
@<TRIPOS>BOND
     1    5    8 un
     2   66   68 un
     3   11   12 un
     4   23   24 un
     5   43   44 un
     6   55   56 un
     7   63   65 un
     8    1    3 un
     9   41   42 un
    10   26   28 un
    11   33   38 un
    12   35   36 un
    13   47   48 un
    14   60   61 un
    15   23   32 un
    16   28   30 un
    17   17   18 un
    18   33   34 un
    19   35   40 un
    20   36   38 un
    21   63   66 un
    22   47   49 un
    23   66   67 un
    24   21   22 un
    25   45   46 un
    26   53   54 un
    27   30   32 un
    28   11   13 un
    29   14   17 un
    30   41   43 un
    31   26   27 un
    32   43   45 un
    33   55   69 un
    34   57   58 un
    35    8   11 un
    36   60   63 un
    37   28   29 un
    38   17   19 un
    39   36   37 un
    40   24   26 un
    41   40   41 un
    42    3   17 un
    43   45   47 un
    44   53   55 un
    45   55   57 un
    46    5    6 un
    47   30   31 un
    48    1   52 un
    49   11   14 un
    50   14   16 un
    51   38   39 un
    52   57   59 un
    53   21   33 un
    54   66   69 un
    55   69   70 un
    56    3    4 un
    57   40   49 un
    58   51   52 un
    59   63   64 un
    60   20   21 un
    61   24   25 un
    62   52   53 un
    63    8   10 un
    64    1    2 un
    65   20   32 un
    66   34   35 un
    67   49   50 un
    68   60   62 un
    69    5    7 un
    70   69   71 un
    71   14   15 un
    72   22   23 un
    73    1   20 un
    74   57   60 un
    75    8    9 un
    76    3    5 un

