@<TRIPOS>MOLECULE
    MOL
   29    32     0     0     0
SMALL
USER_CHARGES


@<TRIPOS>ATOM
      1 C          42.5835   13.7545    8.4182 C.3        1 UNL1     0.075500
      2 C          42.2041   12.4011    7.9804 C.ar       1 UNL1     0.159100
      3 O          41.3749   11.7632    8.8411 O.2        1 UNL1    -0.357600
      4 N          41.2140   10.4603    8.4709 N.ar       1 UNL1    -0.077200
      5 C          41.9568   10.2727    7.3638 C.ar       1 UNL1     0.127800
      6 C          42.0654    8.8773    6.8708 C.ar       1 UNL1     0.031700
      7 C          40.9361    8.0262    6.9730 C.ar       1 UNL1     0.003300
      8 C          40.9785    6.6845    6.5541 C.ar       1 UNL1     0.011500
      9 C          42.1531    6.1659    6.0278 C.ar       1 UNL1     0.058500
     10 CL         42.2578    4.5093    5.5813 Cl         1 UNL1    -0.082200
     11 C          43.2459    6.9956    5.8398 C.ar       1 UNL1     0.022800
     12 C          43.1864    8.3432    6.2266 C.ar       1 UNL1     0.060000
     13 CL         44.5231    9.2815    5.7259 Cl         1 UNL1    -0.082200
     14 C          42.5493   11.5563    6.9401 C.ar       1 UNL1     0.107200
     15 C          43.4979   11.8458    5.8217 C.2        1 UNL1     0.253200
     16 O          44.5236   12.4568    6.1024 O.2        1 UNL1    -0.269800
     17 N          43.2103   11.4343    4.4522 N.am       1 UNL1    -0.279200
     18 C          41.7400   10.9125    4.2395 C.3        1 UNL1     0.075600
     19 C          40.6597   11.9144    3.6604 C.3        1 UNL1     0.019800
     20 C          40.2128   11.7744    2.2062 C.3        1 UNL1     0.001700
     21 C          40.0799   10.3498    1.7069 C.3        1 UNL1     0.000100
     22 C          41.2417    9.4684    2.1435 C.3        1 UNL1     0.001700
     23 C          41.4725    9.5126    3.6476 C.3        1 UNL1     0.019800
     24 C          43.5579   12.4348    3.3887 C.3        1 UNL1     0.075600
     25 C          43.9595   11.7072    2.0950 C.3        1 UNL1     0.019800
     26 C          43.2630   12.1977    0.8541 C.3        1 UNL1     0.001700
     27 C          43.4761   13.6731    0.6808 C.3        1 UNL1     0.000100
     28 C          42.7143   14.3825    1.7933 C.3        1 UNL1     0.001700
     29 C          43.1042   13.9118    3.2020 C.3        1 UNL1     0.019800
@<TRIPOS>BOND
     1   11   12 un
     2    6    7 un
     3    9   10 un
     4   19   20 un
     5    2    3 un
     6   17   18 un
     7    7    8 un
     8   21   22 un
     9    9   11 un
    10    5   14 un
    11   26   27 un
    12    4    5 un
    13   28   29 un
    14    6   12 un
    15    5    6 un
    16    2   14 un
    17   17   24 un
    18    3    4 un
    19   15   16 un
    20   18   23 un
    21   12   13 un
    22   20   21 un
    23   24   25 un
    24    1    2 un
    25   18   19 un
    26   27   28 un
    27   15   17 un
    28   14   15 un
    29   22   23 un
    30   24   29 un
    31   25   26 un
    32    8    9 un

