@<TRIPOS>MOLECULE
    MOL
   72    76     0     0     0
SMALL
USER_CHARGES


@<TRIPOS>ATOM
      1 C          41.7120   11.4790    5.0600 C          1 UNL      0.000000
      2 H          40.6730   11.8160    5.0490 H          1 UNL      0.000000
      3 C          41.6830   10.2090    4.0950 C          1 UNL      0.000000
      4 H          41.9660    9.3830    4.7500 H          1 UNL      0.000000
      5 C          42.6330    9.9830    2.9020 C          1 UNL      0.000000
      6 H          43.6740   10.1820    3.1550 H          1 UNL      0.000000
      7 H          42.6120    8.8970    2.7040 H          1 UNL      0.000000
      8 C          42.2570   10.6350    1.5730 C          1 UNL      0.000000
      9 H          42.8520   10.1710    0.7740 H          1 UNL      0.000000
     10 H          42.5420   11.6900    1.5840 H          1 UNL      0.000000
     11 C          40.7880   10.4950    1.1950 C          1 UNL      0.000000
     12 H          40.6130    9.5070    0.7480 H          1 UNL      0.000000
     13 H          40.5440   11.2270    0.4120 H          1 UNL      0.000000
     14 C          39.8350   10.6800    2.3670 C          1 UNL      0.000000
     15 H          38.8250   10.3750    2.0640 H          1 UNL      0.000000
     16 H          39.7690   11.7400    2.6060 H          1 UNL      0.000000
     17 C          40.2480    9.8950    3.6070 C          1 UNL      0.000000
     18 H          40.1890    8.8240    3.3650 H          1 UNL      0.000000
     19 H          39.5190   10.0630    4.4070 H          1 UNL      0.000000
     20 N          41.9240   11.2460    6.5190 N          1 UNL      0.000000
     21 C          42.0310   10.0150    7.2250 C          1 UNL      0.000000
     22 N          42.1850   10.2440    8.5200 N          1 UNL      0.000000
     23 C          42.2900   11.5890    8.6710 C          1 UNL      0.000000
     24 C          42.5840   12.3130    9.8340 C          1 UNL      0.000000
     25 H          42.7990   11.7830   10.7560 H          1 UNL      0.000000
     26 C          42.6100   13.7090    9.7690 C          1 UNL      0.000000
     27 H          42.8630   14.2780   10.6640 H          1 UNL      0.000000
     28 C          42.2960   14.3670    8.5780 C          1 UNL      0.000000
     29 H          42.2960   15.4520    8.5530 H          1 UNL      0.000000
     30 C          42.0190   13.6510    7.4080 C          1 UNL      0.000000
     31 H          41.7780   14.1770    6.4920 H          1 UNL      0.000000
     32 C          42.0750   12.2520    7.4670 C          1 UNL      0.000000
     33 C          42.0990    8.6230    6.7050 C          1 UNL      0.000000
     34 C          43.2620    8.1470    6.1080 C          1 UNL      0.000000
     35 C          43.2900    6.9390    5.4220 C          1 UNL      0.000000
     36 H          44.1220    6.6720    4.7780 H          1 UNL      0.000000
     37 C          42.3270    5.9820    5.7080 C          1 UNL      0.000000
     38 C          41.2810    6.3130    6.5670 C          1 UNL      0.000000
     39 H          40.5830    5.5600    6.9180 H          1 UNL      0.000000
     40 C          41.1300    7.6500    7.0040 C          1 UNL      0.000000
     41 H          40.2960    7.9010    7.6610 H          1 UNL      0.000000
     42 O          44.3740    8.8540    6.4550 O          1 UNL      0.000000
     43 C          45.0020    9.6530    5.4760 C          1 UNL      0.000000
     44 H          45.8620    9.0950    5.1110 H          1 UNL      0.000000
     45 H          44.2850    9.7730    4.6600 H          1 UNL      0.000000
     46 H          45.2810   10.6500    5.8280 H          1 UNL      0.000000
     47 O          42.5570    4.7660    5.1280 O          1 UNL      0.000000
     48 C          41.7200    3.6940    5.5470 C          1 UNL      0.000000
     49 H          42.0430    3.2760    6.5070 H          1 UNL      0.000000
     50 H          40.6770    4.0160    5.5850 H          1 UNL      0.000000
     51 H          41.8000    2.9000    4.7960 H          1 UNL      0.000000
     52 O          43.6440   12.9490    4.7860 O          1 UNL      0.000000
     53 C          42.4920   12.6990    4.5100 C          1 UNL      0.000000
     54 N          41.7460   13.4660    3.5970 N          1 UNL      0.000000
     55 H          40.8060   13.1730    3.3630 H          1 UNL      0.000000
     56 C          42.2800   14.6150    2.8580 C          1 UNL      0.000000
     57 H          42.2670   15.4760    3.5360 H          1 UNL      0.000000
     58 C          41.3960   14.9310    1.6410 C          1 UNL      0.000000
     59 H          40.3500   15.0400    1.9510 H          1 UNL      0.000000
     60 H          41.7060   15.8970    1.2210 H          1 UNL      0.000000
     61 C          41.4900   13.8730    0.5380 C          1 UNL      0.000000
     62 H          40.9210   14.2080   -0.3370 H          1 UNL      0.000000
     63 H          41.0170   12.9430    0.8750 H          1 UNL      0.000000
     64 C          42.9290   13.5840    0.1230 C          1 UNL      0.000000
     65 H          43.3260   14.4430   -0.4320 H          1 UNL      0.000000
     66 H          42.9490   12.7300   -0.5650 H          1 UNL      0.000000
     67 C          43.8330   13.2970    1.3200 C          1 UNL      0.000000
     68 H          44.8710   13.2160    0.9770 H          1 UNL      0.000000
     69 H          43.5680   12.3250    1.7560 H          1 UNL      0.000000
     70 C          43.7270   14.3900    2.3850 C          1 UNL      0.000000
     71 H          44.1070   15.3280    1.9530 H          1 UNL      0.000000
     72 H          44.3840   14.1550    3.2260 H          1 UNL      0.000000
@<TRIPOS>BOND
     1    5    8 un
     2   61   64 un
     3   11   12 un
     4   23   24 un
     5   43   44 un
     6   61   62 un
     7   37   38 un
     8   70   71 un
     9   37   47 un
    10   26   28 un
    11   35   36 un
    12   34   42 un
    13   47   48 un
    14   67   70 un
    15   23   32 un
    16    3    5 un
    17   58   61 un
    18   28   30 un
    19   17   18 un
    20   33   34 un
    21   48   50 un
    22   64   65 un
    23   21   22 un
    24   53   54 un
    25   67   69 un
    26   30   32 un
    27   38   40 un
    28   11   13 un
    29   14   17 un
    30   43   45 un
    31   26   27 un
    32    8   11 un
    33   28   29 un
    34   17   19 un
    35   35   37 un
    36   24   26 un
    37   40   41 un
    38    3   17 un
    39   48   49 un
    40   56   58 un
    41   56   70 un
    42    5    6 un
    43   30   31 un
    44   11   14 un
    45   14   16 un
    46   38   39 un
    47   43   46 un
    48   33   40 un
    49   21   33 un
    50   42   43 un
    51   54   56 un
    52   58   60 un
    53    3    4 un
    54   67   68 un
    55   64   67 un
    56   20   21 un
    57   24   25 un
    58   52   53 un
    59    8   10 un
    60    1    2 un
    61   20   32 un
    62   34   35 un
    63   56   57 un
    64    5    7 un
    65   61   63 un
    66    1   53 un
    67   14   15 un
    68   22   23 un
    69    1   20 un
    70   54   55 un
    71   70   72 un
    72   58   59 un
    73   48   51 un
    74    8    9 un
    75    1    3 un
    76   64   66 un

