@<TRIPOS>MOLECULE
    MOL
   28    30     0     0     0
SMALL
USER_CHARGES


@<TRIPOS>ATOM
      1 F          41.9356    2.2486    3.8827 F          1 UNL1    -0.204200
      2 C          41.8869    3.3941    4.5733 C.ar       1 UNL1     0.140100
      3 C          42.6796    4.4700    4.1675 C.ar       1 UNL1     0.029600
      4 C          42.6157    5.6780    4.8690 C.ar       1 UNL1     0.002300
      5 C          41.7521    5.8375    5.9633 C.ar       1 UNL1     0.000300
      6 C          41.6006    7.1313    6.6767 C.2        1 UNL1     0.004700
      7 C          42.0693    8.3185    6.2445 C.2        1 UNL1     0.058400
      8 C          41.7068    9.6058    6.9384 C.2        1 UNL1     0.256000
      9 O          41.1945    9.4683    8.0525 O.2        1 UNL1    -0.269500
     10 N          41.8913   10.8706    6.3010 N.am       1 UNL1    -0.212500
     11 C          41.2495   12.0747    7.0088 C.3        1 UNL1     0.084200
     12 C          41.4314   12.0574    8.5515 C.3        1 UNL1     0.020300
     13 C          42.9222   12.0837    8.8688 C.3        1 UNL1     0.001700
     14 C          43.5092   13.4330    8.4713 C.3        1 UNL1     0.000100
     15 C          43.1341   13.8606    7.0515 C.3        1 UNL1     0.001700
     16 C          41.6842   13.5374    6.6684 C.3        1 UNL1     0.020300
     17 C          42.5695   10.9282    5.0822 C.2        1 UNL1     0.309900
     18 O          43.3420   10.0553    4.6876 O.2        1 UNL1    -0.252200
     19 N          42.3993   12.0550    4.3184 N.am       1 UNL1    -0.290100
     20 C          43.5376   12.8390    3.8191 C.3        1 UNL1     0.073100
     21 C          44.2000   12.1109    2.6436 C.3        1 UNL1     0.019600
     22 C          43.3241   12.1232    1.3878 C.3        1 UNL1     0.001700
     23 C          42.8917   13.5347    0.9980 C.3        1 UNL1     0.000100
     24 C          42.2475   14.2880    2.1575 C.3        1 UNL1     0.001700
     25 C          43.1260   14.2599    3.4052 C.3        1 UNL1     0.019600
     26 C          40.9973    4.7202    6.3725 C.ar       1 UNL1     0.002300
     27 C          41.0559    3.5059    5.6769 C.ar       1 UNL1     0.029600
     28 H          41.6052   12.0274    3.7024 H          1 UNL1     0.150900
@<TRIPOS>BOND
     1   11   12 un
     2   23   24 un
     3    2   27 un
     4    6    7 un
     5   11   16 un
     6   19   20 un
     7    2    3 un
     8   17   18 un
     9    7    8 un
    10   13   14 un
    11   21   22 un
    12   19   28 un
    13   26   27 un
    14    4    5 un
    15   17   19 un
    16    5    6 un
    17   10   11 un
    18   20   25 un
    19   10   17 un
    20    3    4 un
    21    5   26 un
    22   15   16 un
    23   12   13 un
    24   20   21 un
    25   24   25 un
    26    8   10 un
    27    1    2 un
    28   14   15 un
    29   22   23 un
    30    8    9 un

